  62
        -98.93873640
 C         -1.8037453933       -0.7916384368        0.2864542111
 C         -2.0785345833        0.5334058570       -0.1415141317
 C         -3.4321277265        0.7924340522       -0.6465398902
 C         -4.3152259549       -0.2209342571       -0.6982665742
 C         -5.7442401739       -0.0921251297       -1.1383373208
 C         -6.6662353651        0.2117210456        0.0508418766
 C         -6.1748097771        1.3564338603        0.9369366676
 H         -5.2444500319        1.0554316238        1.4240383643
 H         -6.9178091415        1.4997730956        1.7245389693
 C         -5.9519178136        2.6824694311        0.1962894039
 H         -6.3836437354        3.4914303620        0.7894463950
 H         -6.4773828299        2.6657839334       -0.7592177640
 C         -4.4826872102        3.0375840150       -0.0395902930
 H         -3.9325855564        2.9647339532        0.9019050590
 H         -4.4334607889        4.0792055225       -0.3677922154
 C         -3.7523739840        2.1919959097       -1.0905273386
 H         -2.7886724331        2.6692360222       -1.2904642140
 H         -4.3289391652        2.1792337532       -2.0177128626
 H         -6.7450940574       -0.6876567721        0.6660762726
 H         -7.6599537018        0.4477343218       -0.3342477600
 H         -6.0511007059       -1.0356845989       -1.5927123644
 H         -5.8194908509        0.6993507612       -1.8815395154
 O         -4.0120267941       -1.4824838695       -0.3055242043
 C         -2.7558240730       -1.8080596798        0.1982467182
 O         -2.6434498977       -3.0060451438        0.5134243078
 O         -1.2258296768        1.4603481192       -0.0934448012
 C         -0.4092566979       -1.0427151400        0.8287776313
 C          0.5397160394       -1.4762428776       -0.2585228004
 C          0.2141345284       -2.4894724431       -1.1543131750
 C          1.1188184417       -2.8776757310       -2.1257968619
 C          2.3637087259       -2.2790258442       -2.2124209197
 C          2.6966405744       -1.2621020956       -1.3251674123
 C          1.7769866907       -0.8598265608       -0.3666815541
 H          2.0308628108       -0.0583005639        0.3086260432
 N          3.9393219983       -0.6228378945       -1.3962531955
 S          4.6871966668       -0.0453089903       -0.0162661723
 O          6.0796292390        0.0787821511       -0.3889969570
 O          4.4065560280       -0.8795367185        1.1283400518
 C          3.9952676168        1.5788869158        0.2079774766
 C          3.4540469854        1.9331789766        1.4275764931
 C          2.9207921249        3.2030242679        1.5811616766
 C          2.9396421581        4.0919825333        0.5179478853
 C          3.4926301229        3.7228847855       -0.6989279875
 C          4.0273730513        2.4550251900       -0.8586029743
 H          4.4659312861        2.1329124539       -1.7883043638
 H          3.5041113026        4.4180393060       -1.5229552310
 H          2.5184080585        5.0774900263        0.6390322761
 H          2.4881481631        3.4907270725        2.5260315566
 H          3.4513838020        1.2087542792        2.2274064964
 H          4.5918767301       -1.0122115035       -2.0600220199
 H          3.0716962034       -2.5937151428       -2.9639397132
 H          0.8565450576       -3.6653295681       -2.8162536457
 H         -0.7477885799       -2.9734559365       -1.0747190370
 H         -0.0663650469       -0.0556611809        1.1793485526
 C         -0.3766564398       -1.9772358322        2.0299788789
 C          0.1584061363       -3.3733606369        1.9822689200
 C          0.9302360397       -2.3036565281        2.6918683357
 H          0.9710379203       -2.3251723410        3.7706680309
 H          1.8374905664       -1.9461015792        2.2250865072
 H         -0.3528195265       -4.1243741454        2.5650001517
 H          0.5424943813       -3.7421469477        1.0444150898
 H         -1.2251835219       -1.8157703151        2.6877415070
