  62
        -98.95211927
 C         -2.3576927404       -0.3454275778        0.0415824002
 C         -1.5165579402        0.2271692718       -0.9403625798
 C         -1.5251282788        1.6930949119       -1.0220742491
 C         -2.3084749078        2.3931145923       -0.1817217985
 C         -2.4285385263        3.8894575524       -0.1638962978
 C         -1.4430532754        4.5349284010        0.8183828921
 C         -0.0017875559        4.0491175497        0.6640287914
 H          0.6093547349        4.6183796887        1.3688659915
 H          0.0653093932        3.0014963895        0.9669350010
 C          0.5757614638        4.2010188897       -0.7500311187
 H          1.5909013442        4.5955445587       -0.6684203588
 H         -0.0108442957        4.9250476906       -1.3176874982
 C          0.6703296422        2.8883042700       -1.5301777493
 H          1.3312110221        3.0451330897       -2.3872072794
 H          1.1301304517        2.1300412193       -0.8912241398
 C         -0.6557489385        2.3336329315       -2.0671266391
 H         -1.1996298679        3.1228744723       -2.5913106086
 H         -0.4208309695        1.5424945916       -2.7852129595
 H         -1.7701746953        4.3122483308        1.8367943521
 H         -1.4802764044        5.6175095611        0.6788120826
 H         -2.2545547863        4.2701115427       -1.1687877277
 H         -3.4458515260        4.1443650332        0.1397598826
 O         -3.0860237181        1.8093458626        0.7668490214
 C         -3.1164766493        0.4322391626        0.9137889608
 O         -3.8533613094        0.0270476029        1.8375570309
 H         -0.4329170604       -0.8640900204        1.6484850594
 C         -0.1338216314       -1.7692140104        1.1399523189
 C         -1.0427867023       -2.4345849192        0.3275982489
 C         -0.6349821237       -3.6048873893       -0.3010846318
 C          0.6577831759       -4.0735315906       -0.1420531624
 C          1.5747783069       -3.3769740019        0.6236458376
 C          1.1728440282       -2.2112388718        1.2651239982
 N          2.0717638592       -1.4507014030        2.0422829283
 S          2.3906002205        0.1131777069        1.5272577089
 O          3.3605218314        0.6270419456        2.4710107988
 O          1.1611525812        0.8519439182        1.4117084796
 C          3.1751490798       -0.0911713431       -0.0626431415
 C          2.4111806792       -0.4106189819       -1.1674218813
 C          3.0529663886       -0.6243476919       -2.3784761017
 C          4.4322587386       -0.5201584932       -2.4649407621
 C          5.1841642393       -0.2005294545       -1.3441363122
 C          4.5518494399        0.0117986656       -0.1303135919
 H          5.0924378004        0.2658750847        0.7672228481
 H          6.2569418394       -0.1173955055       -1.4118660625
 H          4.9226765782       -0.6880161133       -3.4109522423
 H          2.4599400080       -0.8720338810       -3.2441810616
 H          1.3369905791       -0.4829823909       -1.0888582410
 H          2.9482474188       -1.9210569239        2.2240812178
 H          2.5912160966       -3.7267353329        0.7250783071
 H          0.9603990849       -4.9834327607       -0.6373688129
 H         -1.3288611044       -4.1476305283       -0.9219614418
 C         -2.4289470118       -1.8554527478        0.1830394696
 H         -2.9850550117       -2.0504733377        1.1121652897
 C         -3.2026102028       -2.4419523865       -0.9815153104
 C         -4.0297855839       -3.6783337758       -0.8005578807
 C         -4.6978161927       -2.3482937851       -0.9734044199
 H         -5.2073032428       -2.1405334641       -1.9023451696
 H         -5.1577453519       -1.8865557550       -0.1114543895
 H         -4.0857678348       -4.3856443554       -1.6143020110
 H         -4.0492039040       -4.1289351762        0.1802498591
 H         -2.6980062929       -2.2951214766       -1.9297865005
 O         -0.8050472011       -0.4568211885       -1.7233222003
