  62
        -98.94570807
 C         -0.9715529207       -1.1550203403       -0.2559736278
 C         -2.0135175471       -1.2187987626        0.7068094509
 C         -2.9046014179       -0.0556104358        0.7865338444
 C         -2.6908610969        0.9885171841       -0.0341302040
 C         -3.5638289660        2.2066372131       -0.1150811792
 C         -4.6727656653        2.0254235238       -1.1614478693
 C         -5.4414444149        0.7108224299       -1.0288356984
 H         -6.2156166120        0.7074171214       -1.7993669646
 H         -4.7672567642       -0.1202397930       -1.2484152731
 C         -6.0873373953        0.4888712681        0.3459550255
 H         -6.1546957312        1.4365593834        0.8813740899
 H         -7.1071761945        0.1268061944        0.1992829905
 C         -5.3715164606       -0.5395182232        1.2236171446
 H         -5.2222076058       -1.4627938634        0.6581134691
 H         -6.0223144734       -0.7765250286        2.0695550693
 C         -4.0175733624       -0.1003929427        1.7954829303
 H         -4.1251401614        0.8648927523        2.2937192927
 H         -3.7169280265       -0.8418860116        2.5411718431
 H         -5.3669310823        2.8637286170       -1.0782290103
 H         -4.2196527013        2.0566488776       -2.1550156981
 H         -4.0020680160        2.3989529724        0.8621870704
 H         -2.9452461960        3.0569332107       -0.4038639329
 O         -1.6761008933        1.0234862280       -0.9313192056
 C         -0.7871348371       -0.0340146813       -1.0657758004
 O          0.0867988473        0.1647673798       -1.9318055175
 O         -2.1934399433       -2.2123349426        1.4606795963
 C         -0.0550112715       -2.3649760115       -0.3405942033
 C          1.1905667884       -2.1328509607        0.4801756555
 C          1.3981164204       -2.8469623203        1.6552000455
 C          2.5254555622       -2.6248750931        2.4252226963
 C          3.4585743445       -1.6785817987        2.0441123253
 C          3.2567122627       -0.9540586355        0.8731553153
 C          2.1326219917       -1.1885971484        0.0940115809
 H          1.9886774609       -0.6202567622       -0.8113553805
 N          4.1853891941        0.0159883609        0.4792418027
 S          3.7832306136        1.2997536538       -0.5009835708
 O          3.6840003490        0.8710326099       -1.8725972349
 O          4.8261777628        2.2718753868       -0.2340138820
 C          2.2334683994        1.9700784457        0.0777431795
 C          1.4507996369        2.6494237318       -0.8326208911
 C          0.2865861960        3.2602809309       -0.3959543393
 C         -0.0795642459        3.1732954185        0.9374745151
 C          0.7133798786        2.4816335304        1.8389063062
 C          1.8869264320        1.8819246258        1.4109761482
 H          2.5170275478        1.3459174447        2.1019287566
 H          0.4216540637        2.4072319521        2.8743623346
 H         -0.9895701848        3.6426352677        1.2773274044
 H         -0.3325625242        3.7899340234       -1.1023589929
 H          1.7564672317        2.6719306365       -1.8661372947
 H          4.8947770149        0.2515767342        1.1566025372
 H          4.3369965834       -1.4968099664        2.6441631661
 H          2.6758038209       -3.1877090441        3.3337493246
 H          0.6585352501       -3.5687236599        1.9688581277
 H         -0.6169046009       -3.1811177984        0.1344131201
 C          0.2849627828       -2.7841552194       -1.7561098997
 C          0.7076256982       -4.1994721518       -2.0083346506
 C         -0.6313979994       -3.7209308902       -2.4819609668
 H         -0.7852622736       -3.5732115820       -3.5403837668
 H         -1.5104362450       -4.0671291099       -1.9576771902
 H          1.4782515163       -4.3825082853       -2.7413902916
 H          0.7345603784       -4.8720131441       -1.1642335840
 H          0.7611535541       -2.0063388331       -2.3387736585
