  62
        -98.94642524
 C         -1.5415139698       -1.1132619597        0.0176230895
 C         -2.5813711097       -0.8142118996        0.9348266895
 C         -3.2975636894        0.4483895406        0.7135452498
 C         -2.9161080292        1.2509112107       -0.2965735700
 C         -3.5805362788        2.5462487210       -0.6606077497
 C         -4.6925879189        2.3274512816       -1.6961280397
 C         -5.6645606792        1.2053578917       -1.3313041799
 H         -6.4226437192        1.1635610021       -2.1164535299
 H         -5.1321080595        0.2516218816       -1.3487288002
 C         -6.3494251691        1.3770919316        0.0317383901
 H         -6.2680168989        2.4140167215        0.3597123403
 H         -7.4129661292        1.1559177219       -0.0804196599
 C         -5.8162035294        0.4547328112        1.1296847699
 H         -5.8125536197       -0.5775037287        0.7705230597
 H         -6.5046236694        0.5028963512        1.9776284899
 C         -4.4154529093        0.7871567507        1.6590007099
 H         -4.3719051490        1.8396679006        1.9460241302
 H         -4.2457440194        0.1801624105        2.5530406798
 H         -5.2422661387        3.2629050517       -1.8154420295
 H         -4.2302897090        2.0809844416       -2.6548553698
 H         -3.9916173787        3.0028729209        0.2375026904
 H         -2.8299192087        3.2143946309       -1.0861484995
 O         -1.8980616193        0.9446970807       -1.1388046901
 C         -1.1916317996       -0.2441514496       -1.0155302404
 O         -0.3019470497       -0.3896578396       -1.8752465304
 H          1.5251541199       -2.0323500103       -1.2517355108
 C          1.6700299800       -1.8065321905       -0.2075759808
 C          0.6286228899       -1.9837492205        0.6897718292
 C          0.8392526801       -1.6613691308        2.0278246493
 C          2.0607968002       -1.1745148913        2.4542419194
 C          3.0898769702       -0.9717270613        1.5506667294
 C          2.8827135001       -1.2779999510        0.2126074593
 N          3.8990158802       -1.0090125810       -0.7233227106
 S          4.5985474506        0.5098488787       -0.6273358603
 O          4.9829240907        0.8461097289       -1.9808702902
 O          5.6769400606        0.4751461682        0.3309727697
 C          3.3258003909        1.6192119890       -0.0408325600
 C          3.5902505612        2.4255088486        1.0482606302
 C          2.6057869614        3.2878090688        1.5026409104
 C          1.3751276914        3.3269119893        0.8655801304
 C          1.1265888412        2.5132605696       -0.2284759498
 C          2.1081922809        1.6515814694       -0.6907863200
 H          1.9125732507        1.0051462097       -1.5319257401
 H          0.1688303612        2.5280067200       -0.7248889598
 H          0.6042095716        3.9920244594        1.2219577006
 H          2.7982581416        3.9220502286        2.3529280505
 H          4.5573058612        2.3559484683        1.5194912801
 H          3.6258149501       -1.2116985307       -1.6745404807
 H          4.0432455703       -0.5730393617        1.8581466395
 H          2.2112272103       -0.9367290315        3.4960981594
 H          0.0240143000       -1.7819398308        2.7272088593
 C         -0.7491398902       -2.3934693300        0.2337299291
 H         -1.2490075703       -2.9107938600        1.0630201190
 C         -0.7565477305       -3.2962295397       -0.9812379711
 C         -0.2907018408       -4.7137730699       -0.8405097514
 C         -1.7444271608       -4.4201812694       -1.0539128813
 H         -2.1841252708       -4.6577462991       -2.0111090613
 H         -2.4195274708       -4.5481624594       -0.2205200513
 H          0.0228011191       -5.0383655402        0.1401133785
 H          0.2697363790       -5.1567053598       -1.6496478915
 H         -0.5325254003       -2.7794493195       -1.9063551909
 O         -2.8935971099       -1.5690385798        1.8932580594
