  62
        -98.94488196
 C          1.9426195406        0.4167787315       -0.6958055493
 C          2.9931799905        1.2774001810       -0.2954053881
 C          4.3394457805        0.6958317311       -0.3167136585
 C          4.5100521706       -0.5759772784       -0.7215262799
 C          5.8235988407       -1.3032879782       -0.8208581605
 C          6.2941461304       -1.9233833798        0.5020223688
 C          6.7971467602       -0.9251300310        1.5456145301
 H          7.2926934400       -1.5029804419        2.3283100095
 H          7.5492007102       -0.2774328504        1.0939778410
 C          5.6952858300       -0.0697117118        2.1864017509
 H          5.8371655398       -0.0449341830        3.2692068609
 H          4.7226642501       -0.5318884616        2.0018002402
 C          5.6555243501        1.3795915988        1.7015727026
 H          4.8185588200        1.8824912382        2.1925841930
 H          6.5748104900        1.8900474885        1.9969492334
 C          5.4766979604        1.5335050306        0.1853853427
 H          5.2393995804        2.5785732808       -0.0279465261
 H          6.3998861405        1.2719345612       -0.3310423974
 H          7.1087254805       -2.6124493895        0.2672326382
 H          5.4741936904       -2.5098303503        0.9231896980
 H          5.6790871308       -2.1073036874       -1.5457458115
 H          6.5899687107       -0.6269074878       -1.2004097896
 O          3.4756853407       -1.3651332080       -1.1166004211
 C          2.1673828007       -0.9008506080       -1.0940543808
 O          1.3209968308       -1.7420303477       -1.4512221219
 H         -1.7794834693       -0.5390192981       -1.1663485911
 C         -1.4487423295       -0.5691181593       -0.1423626111
 C         -0.3176648696        0.1215574103        0.2604664799
 C          0.0779593601        0.0343021787        1.5940196899
 C         -0.6298231900       -0.7378329724        2.4930127789
 C         -1.7563003799       -1.4317503619        2.0848149578
 C         -2.1633036797       -1.3482087004        0.7596197779
 N         -3.2931141795       -2.0556681599        0.3165140968
 S         -4.4493614694       -1.2995593388       -0.6240921425
 O         -5.5937311694       -2.1822055189       -0.5698402338
 O         -3.9270110491       -1.0107657473       -1.9343613121
 C         -4.8052267796        0.2105637201        0.2551178292
 C         -5.6976782198        0.1596464889        1.3084935689
 C         -5.9280560000        1.3074511480        2.0488387702
 C         -5.2571605800        2.4788403384        1.7311004917
 C         -4.3648928598        2.5132694797        0.6707957620
 C         -4.1333498896        1.3693347406       -0.0770801393
 H         -3.4501202494        1.3588395216       -0.9100458992
 H         -3.8454079697        3.4254079700        0.4237749431
 H         -5.4320731101        3.3713543877        2.3109145728
 H         -6.6252607002        1.2852721070        2.8708441501
 H         -6.2042136898       -0.7691362614        1.5155840677
 H         -3.7320837497       -2.6224766207        1.0274284060
 H         -2.3073608300       -2.0433205327        2.7830747770
 H         -0.3061228202       -0.8002178835        3.5209903489
 H          0.9596025701        0.5748447784        1.9106082407
 C          0.5196946206        0.9481055514       -0.6828795989
 H          0.5962518804        1.9666742309       -0.2745488877
 C         -0.0329442292        1.0292699431       -2.0890909989
 C         -1.0909698691        2.0365441134       -2.4227925280
 C          0.3050044709        2.2170112841       -2.9374421275
 H          0.4949803812        2.0613472253       -3.9888115576
 H          0.9181753508        2.9866897436       -2.4918078665
 H         -1.8675206390        1.7562068242       -3.1193898984
 H         -1.4185710693        2.6939793725       -1.6313425073
 H         -0.0729153490        0.0646499436       -2.5832152201
 O          2.8129866004        2.4716130006        0.0636189233
