  62
        -98.93063985
 C         -2.3761669368       -0.6039819327        0.4962549018
 C         -3.1896491441       -0.4621508458       -0.6547441034
 C         -4.3230236739        0.4734949902       -0.5301419957
 C         -4.4991753614        1.1542102409        0.6155732969
 C         -5.6442475929        2.0791784877        0.9160710968
 C         -6.9055838293        1.2604492283        1.2582470400
 C         -8.0460039297        1.4069587816        0.2505030208
 H         -8.7812497759        0.6309014527        0.4740446449
 H         -8.5313163390        2.3734320300        0.4020043522
 C         -7.6499441649        1.3082612107       -1.2259042984
 H         -8.5720725255        1.1630312285       -1.7927599154
 H         -7.2280050387        2.2582824884       -1.5570725075
 C         -6.6694391295        0.1842288993       -1.5848494110
 H         -6.7243723552       -0.6220404544       -0.8529949244
 H         -6.9736966393       -0.2374325468       -2.5450293185
 C         -5.2047630880        0.6354873542       -1.7377149327
 H         -5.1760661854        1.6753429564       -2.0744734694
 H         -4.7309103048        0.0258434315       -2.5128341591
 H         -6.6203052433        0.2091656357        1.3364493932
 H         -7.2771790265        1.5575910261        2.2401225492
 H         -5.3493159680        2.6952389700        1.7657265475
 H         -5.8281747840        2.7272690024        0.0621443807
 O         -3.6761440446        1.0157022905        1.6881824690
 C         -2.6087285266        0.1370495314        1.6576959729
 O         -1.9476318686        0.0977712170        2.7156454672
 O         -2.9980552939       -1.0719573054       -1.7371358800
 C         -1.1888500775       -1.5509480724        0.5644091673
 C          0.0641217192       -0.8782212629        0.0659476621
 C          0.1155174371       -0.2802961028       -1.1895132037
 C          1.2796310298        0.3224062987       -1.6300055949
 C          2.4101681462        0.3471091571       -0.8316542838
 C          2.3686340311       -0.2426121179        0.4240948706
 C          1.1993163458       -0.8514257412        0.8623745107
 H          1.1675872320       -1.2999133069        1.8466849347
 N          3.5093631421       -0.2070567371        1.2436766842
 S          4.9688026151       -0.7287917586        0.5967910876
 O          4.7601100743       -1.7074567938       -0.4447627971
 O          5.7538202115       -1.1556135433        1.7342028318
 C          5.6905460090        0.7483210518       -0.0856997256
 C          5.8825188885        1.8279074977        0.7540497759
 C          6.4527899439        2.9815748224        0.2403829667
 C          6.8216264511        3.0349570494       -1.0956899727
 C          6.6250451412        1.9413958998       -1.9249588254
 C          6.0543505081        0.7844256219       -1.4175178152
 H          5.8783345569       -0.0885838181       -2.0257349776
 H          6.9125375156        1.9849683873       -2.9632105529
 H          7.2654467919        3.9342467356       -1.4927002480
 H          6.6075503931        3.8340042485        0.8820991439
 H          5.5859833140        1.7449400234        1.7863685549
 H          3.3639199987       -0.5978097511        2.1633553379
 H          3.3183086055        0.8176201538       -1.1715046804
 H          1.3072717002        0.7801989420       -2.6072345911
 H         -0.7643465184       -0.3000921381       -1.8144802801
 H         -1.0482803938       -1.7509360301        1.6387944512
 C         -1.4555908330       -2.8919285741       -0.1069863420
 C         -0.7698187809       -3.3577540406       -1.3522787729
 C         -0.4240162722       -3.9793362358       -0.0347717932
 H         -0.7465214793       -4.9894730633        0.1676894650
 H          0.5343702839       -3.7276440409        0.3959821064
 H         -1.3546291144       -3.9253948136       -2.0597130369
 H         -0.0418189031       -2.7090269382       -1.8127854222
 H         -2.4894405012       -3.2004716784        0.0102558857
