  62
        -98.93375424
 C         -2.4396818449       -0.2938352524        0.3298101951
 C         -3.5876686787       -0.1164841767        1.1347877718
 C         -4.7712606569        0.4570323967        0.4715056326
 C         -4.6907405481        0.7942091136       -0.8275818676
 C         -5.7872906492        1.3411667561       -1.6991975376
 C         -6.5045886850        0.2043269516       -2.4469880614
 C         -7.6607578895       -0.4407375362       -1.6836188161
 H         -8.4967934069        0.2604140306       -1.6395641190
 H         -7.9896272424       -1.3063440097       -2.2632295178
 C         -7.3319043131       -0.8987458103       -0.2602953739
 H         -8.0731167748       -1.6457222800        0.0305098336
 H         -6.3568899160       -1.3892000374       -0.2472191491
 C         -7.3543817311        0.2468020786        0.7625879667
 H         -7.8218013228        1.1204081782        0.3086029372
 H         -7.9841046444       -0.0362781153        1.6085987926
 C         -5.9858444936        0.6362626615        1.3412107176
 H         -5.7807741154        0.0308142102        2.2297656008
 H         -6.0237840036        1.6780564736        1.6771706944
 H         -6.8977489308        0.5968731592       -3.3869484424
 H         -5.7585180335       -0.5544855633       -2.6964525548
 H         -6.4870027377        1.9309644882       -1.1145671748
 H         -5.3058976214        1.9909639200       -2.4330117943
 O         -3.5578915852        0.6214813356       -1.5629455551
 C         -2.4100790670        0.0759720230       -1.0143891948
 O         -1.4570324782       -0.0267113664       -1.8092712394
 O         -3.6246862001       -0.4268069241        2.3569235874
 C         -1.1877247968       -0.8835505547        0.9531842127
 C         -0.0564193059        0.1110026039        0.8620826205
 C         -0.2572911555        1.3943752170        1.3648711068
 C          0.7439271856        2.3434569273        1.3026407503
 C          1.9692203410        2.0364750620        0.7367411456
 C          2.1845089713        0.7582777251        0.2421632783
 C          1.1782448637       -0.1989986317        0.3163037650
 H          1.3615302196       -1.1880512381       -0.0735500187
 N          3.4198443840        0.4405960615       -0.3483850662
 S          4.8204849012        1.0125583328        0.4011274569
 O          4.7523548285        0.7758859854        1.8260423827
 O          5.0309087291        2.3815703022        0.0016418631
 C          6.0546487436       -0.0323351875       -0.3472106926
 C          6.5519961350        0.3114889312       -1.5899289771
 C          7.4929330582       -0.5131800390       -2.1856367299
 C          7.9176210723       -1.6612038642       -1.5332411734
 C          7.4099452614       -1.9924762887       -0.2859487647
 C          6.4676267488       -1.1728688603        0.3151464243
 H          6.0530595828       -1.3861787419        1.2873983156
 H          7.7445579578       -2.8838829326        0.2197678438
 H          8.6512145064       -2.3004221774       -1.9985931533
 H          7.8917471809       -0.2581704010       -3.1542163747
 H          6.1991311406        1.2172831495       -2.0546999741
 H          3.4964010257       -0.5415469793       -0.5743216605
 H          2.7593590170        2.7677571857        0.6792388871
 H          0.5711904994        3.3344877942        1.6956505204
 H         -1.2152580760        1.6380543913        1.8044957677
 H         -1.4300947916       -1.0240124057        2.0170425287
 C         -0.8764257599       -2.2333342942        0.3425290620
 C         -0.1047371249       -3.2535173043        1.1238529210
 C         -1.5704940948       -3.4473121358        0.8803627922
 H         -1.8825353063       -4.2129032534        0.1859638520
 H         -2.2517985618       -3.3035193387        1.7061501269
 H          0.5883947611       -3.8919638266        0.5969674719
 H          0.2126970414       -2.9835893341        2.1198015313
 H         -0.7216007517       -2.1802430697       -0.7293534110
