  62
        -98.93471487
 C          1.9964188179        0.5813125127        0.0836600733
 C          2.6631000576       -0.5418667114        0.6328849492
 C          4.0300850529       -0.8114891272        0.1586744161
 C          4.5775455271        0.0016654995       -0.7636129517
 C          5.9210898545       -0.0461030854       -1.4604008539
 C          7.0563274692       -0.9053988230       -0.9093887210
 C          7.6029512817       -0.4557413789        0.4447901484
 H          8.3461573238       -1.1866432901        0.7712321428
 H          8.1134204476        0.5017904538        0.3140401478
 C          6.5639887862       -0.2777509830        1.5491991291
 H          5.8836340965        0.5346216295        1.2856140582
 H          7.0911111424        0.0267007276        2.4575054454
 C          5.7438737570       -1.5226819608        1.8831775037
 H          6.4136621899       -2.3567211947        2.1012855692
 H          5.1735326956       -1.3061238736        2.7904562718
 C          4.7408480705       -1.9663273102        0.8030412058
 H          5.2179607418       -2.5901903958        0.0507029796
 H          3.9681715481       -2.5707822693        1.2869958721
 H          7.8738192524       -0.8401176871       -1.6326629090
 H          6.7551796225       -1.9480809155       -0.8691028370
 H          5.7128639523       -0.3667281852       -2.4873076051
 H          6.2583141080        0.9932206992       -1.5250854836
 O          3.8917131621        1.0611751959       -1.2788569462
 C          2.5996760988        1.3829469433       -0.8843521503
 O          2.1368144821        2.3815711279       -1.4635734178
 H         -1.2929283949       -0.9222885740        1.3536800413
 C         -1.3354641360       -0.7216620911        0.2916925588
 C         -0.4247531646        0.1588874776       -0.2726267170
 C         -0.4811372520        0.3908891569       -1.6437284920
 C         -1.4272508920       -0.2472955868       -2.4248128456
 C         -2.3355180252       -1.1250054759       -1.8577538186
 C         -2.2859778250       -1.3637149330       -0.4915465941
 N         -3.2325301392       -2.2329755591        0.0911401404
 S         -4.8315136935       -1.7431833581       -0.0588698767
 O         -5.5532749951       -2.4516634216        0.9731985908
 O         -5.2701240759       -1.9645066769       -1.4126086354
 C         -4.7718226495        0.0033980679        0.2952464272
 C         -4.7168201537        0.4013368613        1.6165122642
 C         -4.5651866831        1.7477115156        1.9054256850
 C         -4.4572596117        2.6670057999        0.8728468202
 C         -4.5155488707        2.2513343363       -0.4480347121
 C         -4.6738226460        0.9067618248       -0.7437582009
 H         -4.7257434978        0.5444505057       -1.7571628318
 H         -4.4309817822        2.9689746294       -1.2480732366
 H         -4.3223528387        3.7125481570        1.0989504334
 H         -4.5221244829        2.0752123085        2.9318948659
 H         -4.8052471248       -0.3442796883        2.3906854889
 H         -3.0314761136       -2.4472609541        1.0579819562
 H         -3.0860924807       -1.6229907677       -2.4502071776
 H         -1.4592005530       -0.0589001803       -3.4873313519
 H          0.2225248543        1.0805525649       -2.0850401133
 C          0.5930155167        0.8537869172        0.5941255947
 H          0.5637475770        0.3731651826        1.5846267159
 C          0.2924837242        2.3336182739        0.7947256329
 C         -0.7943856264        3.0650848234        0.0697965449
 C         -0.9551720414        2.7402336018        1.5221096145
 H         -0.8966768815        3.5385459858        2.2458791116
 H         -1.6528175473        1.9570767773        1.7795543190
 H         -1.3958767353        2.5201744814       -0.6405112136
 H         -0.5980344116        4.0864683332       -0.2176589158
 H          1.1890283145        2.9046829604        1.0106136609
 O          2.1320912149       -1.2943409635        1.4944428812
