  62
        -98.93590667
 C         -0.5020584795       -1.6668945300        0.2378909937
 C         -1.0909014977       -0.9402290393       -0.8229343616
 C         -2.3213422693       -0.1797801843       -0.5001957054
 C         -2.7529224027       -0.1368685828        0.7725612176
 C         -4.0003826019        0.5028831180        1.3224187784
 C         -5.2660022920       -0.3105369297        1.0064311169
 C         -5.3628805827       -0.8156242024       -0.4306135064
 H         -4.4981070142       -1.4448723874       -0.6488609844
 H         -6.2505518051       -1.4499525451       -0.5005075339
 C         -5.4809407170        0.2710984381       -1.4968287911
 H         -5.6450185403       -0.2308990701       -2.4538209403
 H         -6.3613488355        0.8833894638       -1.2893298281
 C         -4.2694952811        1.1945119844       -1.6484742512
 H         -4.3858824451        1.7313449249       -2.5945813537
 H         -4.2532741065        1.9482294738       -0.8663438818
 C         -2.9262926696        0.4745000699       -1.7186679470
 H         -2.9795644021       -0.3048012957       -2.4879831694
 H         -2.1663960977        1.1774800594       -2.0814214018
 H         -6.1376307128        0.3041318839        1.2375092990
 H         -5.2827930619       -1.1816750098        1.6658571431
 H         -3.8784286751        0.5418857372        2.4067017331
 H         -4.0988492784        1.5206161839        0.9594202902
 O         -2.0826542452       -0.7610543045        1.7830730983
 C         -0.9769556276       -1.5484122761        1.5464184046
 O         -0.5048986162       -2.0941587792        2.5639239084
 H          1.5514512202       -0.1703945138       -0.7800853255
 C          2.2460115107       -0.6290219269       -0.0919707033
 C          1.9708493022       -1.8849549983        0.4321138424
 C          2.8861549575       -2.4672336213        1.3010709997
 C          4.0538127568       -1.8070811041        1.6385851357
 C          4.3216358865       -0.5514307311        1.1258893640
 C          3.4105906045        0.0408915804        0.2564118977
 N          3.6666369364        1.3143688772       -0.2621613328
 S          2.4891575989        2.2964878896       -0.8977756040
 O          2.0843466961        1.8232801193       -2.1966880115
 O          3.0920220340        3.6140621374       -0.8779807841
 C          1.0961383084        2.2982734038        0.2189346886
 C          1.2452952634        2.0218218548        1.5627024013
 C          0.1390680949        2.1183437681        2.3926314496
 C         -1.0848792027        2.5089650443        1.8749820305
 C         -1.2167578444        2.7911196508        0.5246932948
 C         -0.1192023990        2.6799831796       -0.3119521670
 H         -0.1797312572        2.8760198520       -1.3709023483
 H         -2.1662877509        3.0994402936        0.1185644428
 H         -1.9391652006        2.5917427341        2.5277680966
 H          0.2374757268        1.8872917599        3.4412479764
 H          2.2043045904        1.7264057222        1.9560415106
 H          4.4265615371        1.8262284598        0.1588103596
 H          5.2258066900       -0.0272681524        1.3943399012
 H          4.7572926318       -2.2687129305        2.3143115830
 H          2.6679074402       -3.4361200535        1.7247780220
 C          0.6910117370       -2.5959202828        0.0782172946
 H          0.5430260757       -3.3850620899        0.8342550501
 C          0.7550758293       -3.2860991169       -1.2763222375
 C          1.7315449237       -2.9185985321       -2.3482542890
 C          1.8994815637       -4.2025078427       -1.5958626261
 H          1.6915768779       -5.1318283759       -2.1042098661
 H          2.7070245008       -4.2585794300       -0.8815471745
 H          1.3846318930       -2.9501622023       -3.3698960749
 H          2.4240969206       -2.1133799741       -2.1578950015
 H         -0.2269987825       -3.6006460711       -1.6142958848
 O         -0.6560403228       -0.9290946248       -2.0030454739
