  62
        -98.94528959
 C         -2.4960524108       -1.1586152511       -0.0126701165
 C         -3.1100693392       -0.2858148873        0.9167476213
 C         -3.6942783839        0.9416621730        0.3621056295
 C         -3.6051650880        1.1718106692       -0.9607759588
 C         -4.0987695014        2.4101192014       -1.6501718301
 C         -2.9932080085        3.4717168627       -1.7368625516
 C         -2.2805612749        3.7319536303       -0.4093728107
 H         -1.7202256991        2.8374076007       -0.1239418565
 H         -1.5436583500        4.5194107075       -0.5839440805
 C         -3.2103442622        4.1443907247        0.7408724807
 H         -2.7572712728        4.9853342050        1.2700588327
 H         -4.1638643687        4.4888329553        0.3391842436
 C         -3.4637396345        3.0495063138        1.7788754901
 H         -3.9434256327        3.5091114903        2.6470836740
 H         -2.5078987375        2.6375998297        2.1140260098
 C         -4.3572985492        1.8890957339        1.3221734033
 H         -4.6071892675        1.2950673837        2.2061283505
 H         -5.2831776012        2.2827952793        0.8988274857
 H         -2.2468386879        3.1383163336       -2.4619596865
 H         -3.4332367485        4.4010230674       -2.1031154003
 H         -4.4100456201        2.1404059353       -2.6606358205
 H         -4.9557559109        2.8056049195       -1.1085719540
 O         -3.0016103441        0.3149190539       -1.8222966867
 C         -2.4100813808       -0.8571334361       -1.3724502154
 O         -1.8628027986       -1.5288285302       -2.2660884812
 O         -3.1592996625       -0.5184630727        2.1559402238
 C         -1.8306205658       -2.4238881565        0.5038748336
 C         -0.3401497793       -2.2856743032        0.3123708434
 C          0.4333674107       -3.1570711686       -0.4410780622
 C          1.7862434082       -2.9175183770       -0.6160904966
 C          2.3946037669       -1.8155577679       -0.0439449669
 C          1.6306801229       -0.9424125004        0.7201687939
 C          0.2795350322       -1.1864063071        0.8963775227
 H         -0.3171729198       -0.5004002861        1.4861561633
 N          2.2426402527        0.1879706588        1.3043300025
 S          2.8743827348        1.3105493306        0.2182368663
 O          2.8740066372        2.5707828322        0.9297069543
 O          2.1652428208        1.2824336334       -1.0410629304
 C          4.5549978103        0.7701346192       -0.0076102986
 C          4.9936146642        0.3908269469       -1.2608478112
 C          6.3064447922       -0.0284872622       -1.4118195289
 C          7.1514261196       -0.0609373411       -0.3129316322
 C          6.6953043984        0.3251412078        0.9388881197
 C          5.3847646907        0.7466567240        1.0965019305
 H          4.9906409565        1.0605590819        2.0485240177
 H          7.3555160446        0.2985316929        1.7907256963
 H          8.1717678350       -0.3890570987       -0.4332707324
 H          6.6625357401       -0.3285830081       -2.3842386051
 H          4.2974763593        0.4272494354       -2.0837648454
 H          1.6363929149        0.6654240557        1.9574434425
 H          3.4459845161       -1.6237745766       -0.1841206163
 H          2.3742226676       -3.5985406879       -1.2121827355
 H         -0.0250303682       -4.0143865052       -0.9053313256
 H         -2.0358542446       -2.4394279252        1.5843697600
 C         -2.4253939660       -3.6643260169       -0.1242241475
 C         -2.3115329422       -4.9822916148        0.5802161354
 C         -3.6358779579       -4.2858626248        0.5030388052
 H         -4.3983857522       -4.6932638985       -0.1435567884
 H         -4.0254088285       -3.8231843383        1.3981817293
 H         -2.1661128061       -5.8727915488       -0.0119858001
 H         -1.8012803487       -4.9963331917        1.5313094036
 H         -2.3744015751       -3.6532573503       -1.2065545249
