  62
        -98.94165083
 C         -0.7096583929       -1.4529795705        0.3845662363
 C         -1.1878116636       -0.7451538535       -0.7464141110
 C         -2.3322465781        0.1469547797       -0.4944169178
 C         -2.7912453420        0.3245617960        0.7559035175
 C         -3.9574130404        1.1831484853        1.1644415758
 C         -5.3178441013        0.4884291705        1.0110399164
 C         -5.8052989282        0.3221287673       -0.4291028793
 H         -5.7581018118        1.2831972687       -0.9420482286
 H         -6.8565369137        0.0313117012       -0.3797599044
 C         -5.0415412126       -0.7337073664       -1.2408033933
 H         -5.7530123189       -1.3616833439       -1.7819567715
 H         -4.4905343548       -1.3879749082       -0.5611896294
 C         -4.0684640103       -0.1616903599       -2.2724399809
 H         -4.6243267701        0.3849722954       -3.0376663584
 H         -3.5567589075       -0.9950774303       -2.7609181992
 C         -3.0008023892        0.7694963722       -1.6827466274
 H         -3.4487721942        1.7257903743       -1.4144194569
 H         -2.2348180727        0.9405982628       -2.4435997693
 H         -6.0532095182        1.0883070552        1.5520604541
 H         -5.2679008191       -0.4902794599        1.4936264659
 H         -3.9594618790        2.1093516004        0.5905165997
 H         -3.8126328628        1.4231959644        2.2193654238
 O         -2.2179142232       -0.2756064982        1.8322132590
 C         -1.2017996706       -1.2003129026        1.6682137030
 O         -0.8198337976       -1.7323316826        2.7296927015
 O         -0.7216296258       -0.8492546720       -1.9086806627
 C          0.3646803743       -2.5267012811        0.3165078867
 C          1.7286343290       -1.9516843989        0.5947410191
 C          2.5734830597       -2.5587021911        1.5168172033
 C          3.8235561487       -2.0292594117        1.7812829663
 C          4.2462409249       -0.8793465110        1.1408691441
 C          3.4068550565       -0.2622162024        0.2183046845
 C          2.1579054159       -0.8024156985       -0.0557243041
 H          1.5203576747       -0.3284055955       -0.7869271186
 N          3.8210571435        0.9055839780       -0.4312928128
 S          2.7546224387        1.9915226476       -1.0980737592
 O          2.2503038115        1.4974651774       -2.3531496203
 O          3.5188904475        3.2203301925       -1.1780336678
 C          1.4176208301        2.2296117391        0.0604754135
 C          1.6285097141        2.1176268724        1.4200558987
 C          0.5804457599        2.3892006301        2.2852067974
 C         -0.6464018185        2.7912256505        1.7826696909
 C         -0.8384874320        2.9104293763        0.4157018219
 C          0.1985617261        2.6192617290       -0.4546695777
 H          0.0832618280        2.6775818973       -1.5252841421
 H         -1.7886879499        3.2322006790        0.0226836267
 H         -1.4565328833        3.0111908286        2.4596554881
 H          0.7253968832        2.2872435768        3.3487559284
 H          2.5917008791        1.8155037896        1.7975559871
 H          4.6556607452        1.3425002246       -0.0709519118
 H          5.2170709210       -0.4569288118        1.3495247884
 H          4.4710801947       -2.5097001472        2.4985439245
 H          2.2367719942       -3.4426574162        2.0376548171
 H          0.1323345927       -3.2168489786        1.1445322634
 C          0.3193122216       -3.3438778852       -0.9670856681
 C          1.3218751539       -3.2152482328       -2.0697361583
 C          1.3252758322       -4.4329329122       -1.1980391636
 H          0.9871855905       -5.3696907550       -1.6145615419
 H          2.1270646574       -4.5296994328       -0.4816085006
 H          0.9602537208       -3.2966168820       -3.0835641968
 H          2.1192582604       -2.4971690516       -1.9576246691
 H         -0.7007206163       -3.5536506535       -1.2732995250
