  62
        -98.93666997
 C          1.8867569796        1.0396340202        0.0046336595
 C          2.3475391699       -0.2980160097        0.0294895903
 C          3.7740798100       -0.4777602992        0.3405278803
 C          4.5417543398        0.5950964211        0.6020377596
 C          5.9991579998        0.5890173016        0.9813162294
 C          6.9793467798        0.0829059812       -0.0946202904
 C          7.3278852301       -1.4064945587        0.0175879105
 H          8.3917751301       -1.5348232386       -0.1919524695
 H          7.1709270903       -1.7274181381        1.0480868207
 C          6.5711100802       -2.3427809894       -0.9294534089
 H          7.0078511901       -2.2697401099       -1.9281300290
 H          6.7222079905       -3.3662524491       -0.5793486783
 C          5.0705582502       -2.0838256598       -1.0668944389
 H          4.6255878603       -2.9274478202       -1.5986229084
 H          4.9051829199       -1.2040141502       -1.6935171494
 C          4.3289105503       -1.8704137591        0.2671151710
 H          3.4753381404       -2.5485889393        0.3312512115
 H          4.9887279704       -2.0672496485        1.1107662411
 H          7.8999130197        0.6570213614        0.0215457492
 H          6.5813075097        0.3080100605       -1.0837128305
 H          6.1222276100       -0.0033394878        1.8907986198
 H          6.2404352996        1.6260157018        1.2233248488
 O          4.0500105995        1.8646380710        0.5917978789
 C          2.7246853494        2.1194068606        0.2840387388
 O          2.4156542092        3.3281297905        0.2999044481
 O          1.6126244501       -1.2955699500       -0.1914985491
 C          0.4373091795        1.3451549797       -0.3345185005
 C         -0.4651387802        0.6665986801        0.6663381600
 C         -0.3481648502        1.0257314110        2.0076442397
 C         -1.1263075700        0.4171094214        2.9720718202
 C         -2.0439723698       -0.5574389390        2.6187770708
 C         -2.1683540998       -0.9244923598        1.2845239011
 C         -1.3858361001       -0.3070117603        0.3161338806
 H         -1.4866912701       -0.6288482209       -0.7059207292
 N         -3.0703348597       -1.9318238402        0.9108365217
 S         -4.0261652498       -1.8090408112       -0.4518110383
 O         -4.9894412696       -2.8782886314       -0.3098674975
 O         -3.2186401799       -1.8298240018       -1.6437773383
 C         -4.8490854901       -0.2355017613       -0.2849424591
 C         -6.0175538301       -0.1809206511        0.4502223910
 C         -6.6393117703        1.0433410989        0.6328846503
 C         -6.0796479006        2.1890291487        0.0875113796
 C         -4.9058755906        2.1174895685       -0.6464645905
 C         -4.2812501104        0.8948070685       -0.8370660598
 H         -3.3716882004        0.8024131683       -1.4067358499
 H         -4.4724320609        3.0083553183       -1.0724200911
 H         -6.5618902308        3.1429540686        0.2318526290
 H         -7.5550175903        1.1013391290        1.1989430503
 H         -6.4237036399       -1.0972191910        0.8470589915
 H         -3.5886288395       -2.3355093599        1.6769942520
 H         -2.6475475196       -1.0408219587        3.3718763612
 H         -1.0206859299        0.7027244920        4.0078255500
 H          0.3740504397        1.7834658113        2.2808315592
 H          0.3244043993        2.4321963698       -0.2145442111
 C          0.1483043795        0.9841464988       -1.7758131803
 C         -0.9302233307        1.7039745982       -2.5261330106
 C          0.5099929992        1.9613833383       -2.8520702709
 H          0.9069313792        1.5811612778       -3.7814235407
 H          0.9454109290        2.9006690885       -2.5427094415
 H         -1.5252011107        1.1462786076       -3.2345372402
 H         -1.4694966008        2.4784077884       -2.0013901610
 H          0.3046879897       -0.0670292113       -1.9897499297
