  62
        -98.93806937
 C          1.8169436996        0.0196823594       -0.0182573404
 C          2.8119758694       -0.7978664710       -0.6022667102
 C          4.1577807595       -0.2119776014       -0.7133336006
 C          4.3681399598        1.0412006888       -0.2750591811
 C          5.6409540200        1.8492988184       -0.3231992016
 C          6.9487074699        1.1351315483        0.0453649985
 C          6.8122039398        0.0387779187        1.1120061889
 H          5.8272268499        0.0911468591        1.5792113290
 H          7.5530138400        0.2115761488        1.8949672787
 C          7.0385217594       -1.3684422015        0.5539875594
 H          7.2930431194       -2.0368276813        1.3800911396
 H          7.8963182493       -1.3432126520       -0.1216373108
 C          5.8451822192       -1.9843604515       -0.1752175202
 H          5.0569696092       -2.2255216511        0.5430872100
 H          6.1726610689       -2.9273725718       -0.6194978999
 C          5.2203258592       -1.1118318218       -1.2760730505
 H          4.7113932790       -1.7749443620       -1.9808938201
 H          5.9808145193       -0.5511929522       -1.8139365508
 H          7.6378823801        1.9036517783        0.3996092781
 H          7.3940495197        0.7045580778       -0.8504283914
 H          5.7362930400        2.2742209780       -1.3267105318
 H          5.4728836303        2.6826862687        0.3631903181
 O          3.3754903201        1.7976163192        0.2750480487
 C          2.0853148800        1.3133525995        0.4251517791
 O          1.2927583203        2.1161930199        0.9533648089
 H         -2.0050055401        0.4545539207        1.0721308500
 C         -1.7682867402        0.7603126503        0.0670020098
 C         -0.5902147903        0.3557545898       -0.5402410402
 C         -0.3310883104        0.7829805692       -1.8410306304
 C         -1.2101251903        1.6181947492       -2.5004981306
 C         -2.3789124502        2.0324355697       -1.8850675806
 C         -2.6556148401        1.6001741302       -0.5950459904
 N         -3.8344890799        1.9979328207        0.0542492097
 S         -4.6895548900        0.8780883313        0.9505186602
 O         -6.0459354799        1.3831032916        0.9646043902
 O         -4.0792638799        0.6867618316        2.2414865602
 C         -4.6059719405       -0.6301005691       -0.0002053692
 C         -4.0908969407       -1.7739211190        0.5724870511
 C         -4.0123100310       -2.9293530693       -0.1889736185
 C         -4.4453910512       -2.9193612897       -1.5053363784
 C         -4.9673581710       -1.7630686798       -2.0651486688
 C         -5.0508046107       -0.6065516595       -1.3076883892
 H         -5.4606594305        0.3044961605       -1.7120240695
 H         -5.3065813712       -1.7596835901       -3.0884244087
 H         -4.3770722715       -3.8182254499       -2.0975983081
 H         -3.6114294612       -3.8307561092        0.2468884218
 H         -3.7596793605       -1.7368104487        1.5973200910
 H         -4.4455743798        2.5818989907       -0.4972838905
 H         -3.0638307001        2.6931278997       -2.3943674307
 H         -0.9873635304        1.9492095488       -3.5036082407
 H          0.5820937994        0.4607845789       -2.3225487804
 C          0.4139343295       -0.5348227702        0.1466084500
 H          0.4221272793       -1.5071819804       -0.3686808796
 C          0.1204827997       -0.7646318996        1.6142708601
 C         -0.7834868405       -1.8794512292        2.0433703607
 C          0.6920413195       -1.9765572995        2.2853095905
 H          1.0602398797       -1.8816540292        3.2959550104
 H          1.2665853993       -2.6557631498        1.6724126507
 H         -1.2078692807       -2.4997346094        1.2688170110
 H         -1.4337811403       -1.7143472787        2.8897980607
 H          0.1018188800        0.1578689806        2.1849224198
 O          2.5834074591       -1.9623963311       -1.0259120898
