  62
        -98.94533062
 C          1.5640435254        1.0034036207        0.3036355517
 C          2.8848639117        1.1596028881        0.7927354013
 C          3.9618044929        0.7953070716       -0.1334834018
 C          3.6582841541        0.3466636073       -1.3649994622
 C          4.6445068144       -0.0551965986       -2.4280005045
 C          5.1512099405       -1.4977589727       -2.2933953905
 C          6.1263580188       -1.7402900406       -1.1405505750
 H          6.5657936417       -2.7276643129       -1.2957892933
 H          6.9361199454       -1.0117969353       -1.1921111899
 C          5.4832941958       -1.7007056690        0.2528563707
 H          4.3998313385       -1.8065115365        0.1573202958
 H          5.8357208919       -2.5514713182        0.8405274367
 C          5.7896875163       -0.4368535411        1.0565986619
 H          6.8593549514       -0.3906284205        1.2725282263
 H          5.2564126445       -0.4989931863        2.0085851946
 C          5.3736916721        0.8679145188        0.3648266681
 H          5.4264048223        1.6762754276        1.0981325441
 H          6.0555621162        1.0932320368       -0.4547036004
 H          4.2896910752       -2.1618052995       -2.1886906891
 H          5.6559712870       -1.7544330760       -3.2277101726
 H          4.1262438737        0.0391902921       -3.3846734407
 H          5.4914424279        0.6314718705       -2.4217988339
 O          2.3777552971        0.2222307784       -1.8028661246
 C          1.3000187019        0.5235930778       -0.9797297635
 O          0.1902092407        0.3402483620       -1.5138540353
 H         -2.0843818800        0.3409928340        0.6032968354
 C         -1.5153965385       -0.3322976869        1.2184005535
 C         -0.2447577623        0.0213836463        1.6406993730
 C          0.4641539372       -0.8693934878        2.4441479466
 C         -0.0889567369       -2.0801362375        2.8118943018
 C         -1.3534393745       -2.4359715320        2.3725407690
 C         -2.0656980310       -1.5590894085        1.5656480120
 N         -3.3586555984       -1.8737961904        1.1080163418
 S         -3.6454687401       -1.7915254350       -0.5495719138
 O         -4.8445223441       -2.5837986959       -0.7377275649
 O         -2.4887024513       -2.2155098935       -1.3026215997
 C         -4.0394150058       -0.0843898756       -0.8587128001
 C         -3.2052385850        0.6903478814       -1.6404614169
 C         -3.5445787466        2.0170774193       -1.8595356387
 C         -4.6996703008        2.5402398593       -1.2986796319
 C         -5.5262924499        1.7456799020       -0.5181047462
 C         -5.1963014374        0.4187025261       -0.2959528354
 H         -5.8121548727       -0.2364963149        0.2971788294
 H         -6.4225451466        2.1569771979       -0.0825078576
 H         -4.9542514671        3.5743677522       -1.4707952009
 H         -2.8971442952        2.6349886515       -2.4618621280
 H         -2.2963544894        0.2591935157       -2.0323677868
 H         -3.7198333384       -2.7447406820        1.4727019235
 H         -1.7835288398       -3.3867688958        2.6504077877
 H          0.4694806842       -2.7587367077        3.4393331145
 H          1.4569643039       -0.5963899051        2.7746630046
 C          0.4101269543        1.3211277012        1.2407976535
 H          0.8782864852        1.7524542162        2.1371956894
 C         -0.5458038796        2.3333742300        0.6483679835
 C         -1.5307549615        3.0311173324        1.5368452892
 C         -0.3709756992        3.7872354769        0.9637132471
 H         -0.5587109724        4.5084303287        0.1827793359
 H          0.4379805464        4.0615853468        1.6249330600
 H         -2.5187456026        3.2301196018        1.1501257477
 H         -1.5084998124        2.7907785349        2.5888997357
 H         -0.8633735415        2.0794224395       -0.3553540772
 O          3.1503538458        1.5853543299        1.9485832019
