  62
        -98.94143068
 C         -2.1793354801       -1.0430230196       -0.0439647994
 C         -3.4639124201       -1.0090977191        0.5492289106
 C         -4.4340461001       -0.0986480195       -0.0725793900
 C         -4.0669311301        0.6137009397       -1.1537963206
 C         -4.9398274800        1.6106722393       -1.8584774213
 C         -4.7492605400        3.0216307297       -1.2843393023
 C         -4.8276253999        3.0833415208        0.2410629977
 H         -3.9824842799        2.5348409210        0.6631565581
 H         -4.7083132999        4.1295981810        0.5304857769
 C         -6.1338108799        2.5352260413        0.8325992181
 H         -6.4866583099        3.2258667718        1.6014006576
 H         -6.9014381400        2.4923458208        0.0591387782
 C         -6.0044212900        1.1618351317        1.4940729791
 H         -5.1743402000        1.1741453622        2.2049011591
 H         -6.9183816900        0.9710435322        2.0626972792
 C         -5.8043504601       -0.0227261690        0.5400950899
 H         -6.5732316601       -0.0053427195       -0.2348622601
 H         -5.9233891601       -0.9415677085        1.1216589006
 H         -3.7681474899        3.3904415594       -1.5921890426
 H         -5.5091203999        3.6751898494       -1.7165489927
 H         -4.6679602201        1.6181036185       -2.9153806613
 H         -5.9801349401        1.3056592994       -1.7633216010
 O         -2.8288591001        0.5399761793       -1.7069653105
 C         -1.8501529601       -0.2791899104       -1.1634735400
 O         -0.7556875001       -0.2379016409       -1.7572826500
 O         -3.7801562101       -1.7040167683        1.5520546811
 C         -1.1262875702       -1.9640258192        0.5428048112
 C          0.1136151499       -1.1927201790        0.9201240306
 C         -0.0173014100        0.0087179615        1.6121234498
 C          1.0934599300        0.7399743417        1.9847870092
 C          2.3659572600        0.2881371414        1.6784917595
 C          2.5098084099       -0.9083027691        0.9914575804
 C          1.3911276098       -1.6436843593        0.6236268909
 H          1.5283327298       -2.5710686397        0.0886541916
 N          3.8181387099       -1.3637662094        0.6818749007
 S          4.4869345499       -0.6669676604       -0.7027531799
 O          3.5767431298       -0.7474433711       -1.8243614198
 O          5.7598484598       -1.3313596006       -0.8814396594
 C          4.7429758400        1.0282956399       -0.2385061011
 C          5.8565022500        1.3526768104        0.5116621587
 C          6.0408251401        2.6712569607        0.8960918177
 C          5.1125105001        3.6338873804        0.5278596271
 C          4.0009511601        3.2907046100       -0.2272945427
 C          3.8105431300        1.9741956597       -0.6168918217
 H          2.9589248700        1.6610712993       -1.2008371215
 H          3.2793278301        4.0395955898       -0.5120041232
 H          5.2553131402        4.6594489407        0.8299762463
 H          6.9042508101        2.9439255310        1.4812284475
 H          6.5520123300        0.5712280905        0.7692093792
 H          3.8545484598       -2.3678280495        0.5587797714
 H          3.2384992300        0.8441137016        1.9792702191
 H          0.9702308401        1.6677933421        2.5221279086
 H         -1.0106293200        0.3627704317        1.8525496895
 H         -1.5723732002       -2.3670405685        1.4649995215
 C         -0.8584185703       -3.1141764899       -0.4062856880
 C         -0.4597198903       -4.4587334395        0.1232912430
 C         -1.8290552403       -4.2546430599       -0.4498582671
 H         -2.0617167404       -4.6979510106       -1.4064556268
 H         -2.6682468603       -4.2142643594        0.2289822228
 H          0.2482971596       -5.0467599400       -0.4419907366
 H         -0.3707961703       -4.5689387488        1.1935963030
 H         -0.4297770303       -2.7848443706       -1.3475211582
