  62
        -98.94468718
 C         -2.0115723136       -0.7533795847        0.5621645816
 C         -1.9580631837       -0.0519482570       -0.6664335649
 C         -2.0034902107        1.4106728459       -0.5668914908
 C         -2.0307082400        1.9980691256        0.6426595479
 C         -2.0269802289        3.4794783783        0.9082748661
 C         -3.4120747564        4.1363780906        0.8274453231
 C         -3.9845145487        4.2777858254       -0.5834659475
 H         -4.8473903245        4.9428991889       -0.5132790445
 H         -3.2484030587        4.7637320630       -1.2243868337
 C         -4.4311028766        2.9547728340       -1.2209069464
 H         -5.4151850279        3.0838316496       -1.6767877268
 H         -4.5336408074        2.1930319181       -0.4446924470
 C         -3.4936377866        2.4273273086       -2.3071581689
 H         -3.8843773911        1.4708812789       -2.6631474746
 H         -3.4807127303        3.1217425887       -3.1500280067
 C         -2.0500425748        2.2022108313       -1.8383656542
 H         -1.5206883001        1.6259806488       -2.6012676803
 H         -1.5391096413        3.1563274859       -1.7092554781
 H         -4.1053009773        3.5629840065        1.4470659388
 H         -3.3236611981        5.1343426442        1.2629176221
 H         -1.3448370867        3.9698066629        0.2127559496
 H         -1.6397938770        3.6101280965        1.9213885210
 O         -2.0461760596        1.2881143003        1.8037926104
 C         -2.0397025412       -0.0972392513        1.7908093060
 O         -2.0636168982       -0.6226352601        2.9246079728
 O         -1.8790357755       -0.6177004061       -1.7885530177
 C         -1.9215319620       -2.2690733956        0.5667637806
 C         -0.6317354424       -2.6813442576       -0.1024285600
 C         -0.5376977532       -3.7128374730       -1.0272113382
 C          0.6737573754       -3.9975807493       -1.6342044791
 C          1.8050457349       -3.2575250301       -1.3454030612
 C          1.7250752906       -2.2374903569       -0.4031066156
 C          0.5196205571       -1.9759663437        0.2242597808
 H          0.4695672517       -1.1806682616        0.9552335560
 N          2.8562377653       -1.4747605576       -0.0621691643
 S          2.6261739364        0.1440379119        0.3626901296
 O          2.2793909385        0.2103550973        1.7616293076
 O          1.7185929032        0.7891950297       -0.5586661857
 C          4.2836762957        0.7618684801        0.1312579176
 C          5.2172145106        0.5491125793        1.1281005265
 C          6.5153376497        0.9948480447        0.9363494124
 C          6.8568246080        1.6412800692       -0.2424616161
 C          5.9088549249        1.8493445535       -1.2330132046
 C          4.6089435899        1.4047496176       -1.0481332010
 H          3.8354807008        1.5499225584       -1.7853938214
 H          6.1759157923        2.3551305176       -2.1468388006
 H          7.8675189638        1.9878809821       -0.3888820301
 H          7.2540166230        0.8371343377        1.7054670915
 H          4.9011390392        0.0505697610        2.0295864385
 H          3.6128944972       -1.5795711708       -0.7246982704
 H          2.7413321834       -3.4630601933       -1.8414788517
 H          0.7323804770       -4.7960647222       -2.3582616494
 H         -1.4151626788       -4.2831447416       -1.2846687780
 H         -1.8739704430       -2.5700445949        1.6241782938
 C         -3.1543903211       -2.8808140168       -0.0648973472
 C         -3.6396898420       -4.2290980715        0.3732634668
 C         -4.4032796910       -2.9975303523        0.7543642667
 H         -5.3527522061       -2.8077374344        0.2768609431
 H         -4.3543932995       -2.6585642580        1.7792746323
 H         -4.0702196225       -4.8874527779       -0.3660488654
 H         -3.0797209331       -4.7350528155        1.1451660898
 H         -3.2629189951       -2.6077808283       -1.1082254373
