  62
        -98.93976881
 C         -1.6780267772       -0.4781088406       -0.6256855055
 C         -2.9834991121       -0.6668575582       -1.1481714277
 C         -4.0871673750       -0.6072837989       -0.1812046017
 C         -3.8068811560       -0.4403422738        1.1236870687
 C         -4.8331456386       -0.3109218260        2.2110217129
 C         -5.2126836283        1.1582635779        2.4443384450
 C         -5.5530002813        1.9199102022        1.1632148968
 H         -5.8323448245        2.9350591261        1.4533543551
 H         -4.6547533094        1.9982882230        0.5464503083
 C         -6.6840418582        1.2952271952        0.3342692844
 H         -7.2573629180        0.6033578568        0.9523317374
 H         -7.3651580526        2.0880715769        0.0181104426
 C         -6.2191209541        0.5757815984       -0.9332757654
 H         -5.5690373091        1.2368288822       -1.5120743867
 H         -7.0991468509        0.3644183709       -1.5464084886
 C         -5.4846909104       -0.7529288751       -0.7144097418
 H         -6.0792556535       -1.3993885962       -0.0657018681
 H         -5.3838048474       -1.2417389479       -1.6878921145
 H         -6.0643955495        1.1903354819        3.1262389520
 H         -4.3712828266        1.6599578911        2.9281385286
 H         -5.7162169668       -0.8866735061        1.9403584518
 H         -4.4120075907       -0.7194107208        3.1313108316
 O         -2.5409562347       -0.3258332970        1.5976265220
 C         -1.4429168722       -0.3339196778        0.7427374948
 O         -0.3517099226       -0.2087984263        1.3272964079
 H          2.0566899230       -0.0417875707       -0.7043149889
 C          1.8003852702       -1.0881201516       -0.7271111837
 C          0.5352606442       -1.4863464419       -1.1314580434
 C          0.2226606833       -2.8437160107       -1.1153848178
 C          1.1532228435       -3.7801958095       -0.7122040763
 C          2.4179681877       -3.3795090001       -0.3192141842
 C          2.7397645293       -2.0282659562       -0.3220114561
 N          4.0349559783       -1.6075677913        0.0305486163
 S          4.2416511652       -0.4211640189        1.1999042630
 O          5.6288202858       -0.5664247468        1.5966624857
 O          3.2732942325       -0.5296016850        2.2643835332
 C          4.0751910101        1.1197836842        0.3288730334
 C          3.2744152319        2.1137331748        0.8525089292
 C          3.2151059138        3.3363838313        0.2004353281
 C          3.9496450133        3.5379746399       -0.9581964934
 C          4.7447756527        2.5250074933       -1.4738323898
 C          4.8160299062        1.3044482896       -0.8225092223
 H          5.4287052953        0.4956664873       -1.1840969115
 H          5.3105892998        2.6855110432       -2.3773471668
 H          3.8991292016        4.4901404276       -1.4627831380
 H          2.5950181133        4.1235751026        0.5996842407
 H          2.7043597298        1.9046134537        1.7439318337
 H          4.6725486343       -2.3708842317        0.2122539560
 H          3.1518361536       -4.1077803729       -0.0071931486
 H          0.8958085285       -4.8287313000       -0.7039895250
 H         -0.7668262974       -3.1535625967       -1.4237454764
 C         -0.5205469521       -0.5215671514       -1.6074733654
 H         -0.9658060407       -0.9470936310       -2.5228301704
 C          0.0313764541        0.8404165867       -1.9972029267
 C         -0.8801805730        2.0259630145       -2.1014103453
 C          0.1660602318        1.9762795333       -1.0307286657
 H          1.0258195455        2.6226225304       -1.1267886394
 H         -0.1393838554        1.8088159366       -0.0099758410
 H         -0.7440227930        2.7109042473       -2.9244220513
 H         -1.9125092830        1.8851650431       -1.8153804947
 H          0.8027434120        0.7578430672       -2.7568894976
 O         -3.2141169708       -0.8793364070       -2.3684236473
