  62
        -98.93946515
 C         -1.5623649540       -1.5875217594       -0.1837765764
 C         -1.5226483224       -0.2065425807       -0.4896591921
 C         -2.8267350857        0.4658405026       -0.6238056817
 C         -3.9557820191       -0.2410082532       -0.4469669296
 C         -5.3824286658        0.2359548060       -0.5554707496
 C         -5.7207369466        1.5923691687        0.0801523430
 C         -4.9038943318        1.9478402265        1.3314335044
 H         -5.5889584355        2.2387263259        2.1301723296
 H         -4.3513787023        1.0735493901        1.6799026684
 C         -3.9318286060        3.1078257472        1.1011357866
 H         -4.4430796378        3.8804706495        0.5226007993
 H         -3.6714564176        3.5434338160        2.0687597937
 C         -2.6229246578        2.7416894760        0.4014158732
 H         -1.9894428019        2.1587693032        1.0753338044
 H         -2.0891593413        3.6692075613        0.1826138546
 C         -2.7719610755        1.9403658076       -0.9013161711
 H         -3.6325210559        2.2749567087       -1.4754781251
 H         -1.8675545763        2.0975344733       -1.4946793389
 H         -5.5963955468        2.3818996497       -0.6596507828
 H         -6.7818030580        1.5654671318        0.3340952702
 H         -5.6558851201        0.2584956204       -1.6142936560
 H         -5.9810766599       -0.5484542356       -0.0862065333
 O         -3.9447830108       -1.5728737112       -0.1509838828
 C         -2.7600719993       -2.2751982189       -0.0061299637
 O         -2.9055933472       -3.4809519335        0.2825332950
 H          2.3288364587       -1.3635458378       -0.1594335931
 C          1.8600775170       -1.2128929969        0.7975914901
 C          0.5752819371       -1.6705611938        1.0377770693
 C          0.0224106947       -1.4764060196        2.3019122482
 C          0.7331893497       -0.8278226054        3.2922329330
 C          2.0063645855       -0.3460948492        3.0400180984
 C          2.5695195406       -0.5423339684        1.7854664321
 N          3.8613181431       -0.0793090546        1.5039450235
 S          4.2781223200        0.4334925649       -0.0286317066
 O          4.4811617857       -0.7022755924       -0.8938616018
 O          5.4451204857        1.2643067146        0.1890432238
 C          2.9418978764        1.4461983106       -0.6358760774
 C          2.4562006725        2.4586116512        0.1659137936
 C          1.4589547260        3.2822291414       -0.3273271981
 C          0.9735473614        3.0874252255       -1.6099781188
 C          1.4710434177        2.0667262824       -2.4022496996
 C          2.4630150325        1.2350453896       -1.9112130383
 H          2.8700444431        0.4215727465       -2.4914047938
 H          1.0822054601        1.9080193213       -3.3958568158
 H          0.1970253865        3.7315862872       -1.9927367643
 H          1.0592985590        4.0699876931        0.2913554069
 H          2.8560708548        2.5933801198        1.1580972589
 H          4.2825054766        0.4909142255        2.2218687504
 H          2.5596199414        0.1726408929        3.8079430353
 H          0.2903175236       -0.6849157385        4.2665451685
 H         -0.9794722110       -1.8382667141        2.4923809458
 C         -0.2602461032       -2.3503670970       -0.0189504430
 H         -0.5313266287       -3.3531158369        0.3416993584
 C          0.4428096843       -2.4813191763       -1.3532456311
 C          1.4152023545       -3.5973491685       -1.5843669464
 C          0.0807366551       -3.6115692801       -2.2666625392
 H          0.0413537011       -3.4242432114       -3.3292465654
 H         -0.6653400436       -4.3116420286       -1.9191427697
 H          2.2983996832       -3.3988157210       -2.1732244930
 H          1.5779533481       -4.2927958853       -0.7746678877
 H          0.6534490073       -1.5199321651       -1.8084185487
 O         -0.4546691922        0.4354308514       -0.6490785939
