  62
        -98.94084375
 C         -2.5748059256       -0.2181798481       -0.3993134592
 C         -2.0069478392       -0.7264148208        0.7914185992
 C         -1.3703314083       -2.0562353056        0.7125129290
 C         -1.4098677966       -2.7257994943       -0.4541984013
 C         -0.8331996254       -4.0775434719       -0.7896156516
 C          0.6868272445       -4.0458563033       -0.9902501364
 C          1.4599265463       -3.3437816439        0.1218935881
 H          2.5201151984       -3.3717959872       -0.1466190613
 H          1.1719128459       -2.2911070307        0.1533000001
 C          1.3111727687       -3.9622307808        1.5109138669
 H          2.0362438961       -3.4624016473        2.1576325012
 H          1.5781313762       -5.0204175989        1.4630306792
 C         -0.0670823497       -3.8282399257        2.1677185858
 H          0.0676088967       -3.9928498857        3.2405738961
 H         -0.7537817859       -4.5972374418        1.8217761832
 C         -0.7089153708       -2.4539569946        2.0086041982
 H         -1.4786478360       -2.3279850060        2.7791077876
 H          0.0364061324       -1.6751339558        2.2118843762
 H          0.8979974935       -3.5188774896       -1.9244521476
 H          1.0399354601       -5.0744519905       -1.0906829806
 H         -1.3007200690       -4.3879245083       -1.7272112937
 H         -1.1016958209       -4.8029977688       -0.0274009827
 O         -2.0189368016       -2.2146391216       -1.5657751853
 C         -2.5647739618       -0.9472513231       -1.5847308124
 O         -3.0183391280       -0.5922005595       -2.6943089198
 O         -2.0254351127       -0.0968107444        1.8825658870
 C         -3.1232559755        1.1963922625       -0.4305858081
 C         -2.0485892475        2.1599575963        0.0167028411
 C         -2.3040806957        3.2858276284        0.7895000869
 C         -1.2646987997        4.1051012330        1.1959730621
 C          0.0452071852        3.8099559642        0.8649557192
 C          0.3087452148        2.6951565259        0.0775743256
 C         -0.7380728027        1.9041566018       -0.3634521953
 H         -0.5194875094        1.0440547252       -0.9796990723
 N          1.6241524861        2.3475578864       -0.2903764697
 S          1.9975129216        0.6953277788       -0.2304384801
 O          1.5380840553        0.0664107193       -1.4441424863
 O          1.5338739188        0.1272602063        1.0134574990
 C          3.7794395922        0.7701511623       -0.2442089806
 C          4.4836297143        0.5378908448        0.9215494750
 C          5.8670634269        0.6252680842        0.8979674304
 C          6.5181047311        0.9456771656       -0.2835852662
 C          5.7973513777        1.1757738589       -1.4463990918
 C          4.4145794830        1.0873839811       -1.4301473053
 H          3.8124036992        1.2475037778       -2.3092925003
 H          6.3069977095        1.4223765196       -2.3637682454
 H          7.5943009256        1.0141595262       -0.2995113212
 H          6.4295658871        0.4434642170        1.7994763244
 H          3.9329985360        0.2871857486        1.8140259906
 H          2.3155214940        2.8825647486        0.2196465985
 H          0.8561790632        4.4319419313        1.2126851994
 H         -1.4763459843        4.9742484677        1.8003022822
 H         -3.3154378049        3.5137896997        1.0847463780
 H         -3.3633847191        1.4073752532       -1.4839434525
 C         -4.3927365992        1.2970027927        0.3905080532
 C         -5.4805083050        2.2489817587       -0.0049100593
 C         -5.6707104545        0.7746116418       -0.1914736562
 H         -6.3579966002        0.2536860915        0.4579186220
 H         -5.6268412256        0.3727620836       -1.1935959517
 H         -6.0433708032        2.7406216096        0.7742164163
 H         -5.3219314092        2.8521609758       -0.8861234517
 H         -4.2149942978        1.1260442371        1.4461172684
