  62
        -98.93877528
 C         -1.8927416398       -0.2210009599       -0.0798791191
 C         -2.9481873798       -1.0713690303        0.3202358102
 C         -4.2658531498       -0.4447269904        0.5405425108
 C         -4.3834014097        0.8858746997        0.3739927121
 C         -5.6213093997        1.7326366797        0.5043994129
 C         -6.5620527797        1.5948345108       -0.7041183172
 C         -6.7636684398        0.1663997313       -1.2035976385
 H         -5.7935574499       -0.2637104585       -1.4594075289
 H         -7.3483452699        0.2170055222       -2.1260091184
 C         -7.4943013898       -0.7641519496       -0.2384939793
 H         -7.6353415699       -1.7185040091       -0.7523588502
 H         -8.4836418198       -0.3530621297       -0.0252772889
 C         -6.7874591298       -1.0395221708        1.0900452504
 H         -7.2996994598       -1.8833261512        1.5616949497
 H         -6.8904811797       -0.1978312914        1.7695138812
 C         -5.3207676598       -1.4392715108        0.9624277100
 H         -5.2383020399       -2.2788360201        0.2628851892
 H         -4.9834014998       -1.8355273617        1.9278730696
 H         -6.1403429398        2.1774912516       -1.5268415567
 H         -7.5271878697        2.0315017806       -0.4419981067
 H         -5.2858824096        2.7702207496        0.5669861838
 H         -6.1392337596        1.4961379989        1.4291097527
 O         -3.3314276497        1.6702576200        0.0013687227
 C         -2.0713287397        1.1524979702       -0.2377919178
 O         -1.2220715897        1.9994281105       -0.5743754071
 O         -2.8028145299       -2.3128339104        0.4868339491
 C         -0.5226616898       -0.8254625498       -0.3346237097
 C          0.4794515902       -0.2044575707        0.6052649608
 C          0.2929201403       -0.3745290719        1.9759656207
 C          1.1555896004        0.2053295772        2.8842669512
 C          2.2307627304        0.9593040476        2.4454586618
 C          2.4280429803        1.1338278788        1.0816306420
 C          1.5582205803        0.5474787197        0.1701307015
 H          1.7245966702        0.7193449406       -0.8793368384
 N          3.4983088203        1.9129160492        0.6140564326
 S          4.4547006702        1.3936709103       -0.6529392979
 O          5.6115538303        2.2605178102       -0.6091256871
 O          3.7078567802        1.3861338815       -1.8839926279
 C          4.9260938902       -0.2650473101       -0.1979752494
 C          6.0093904902       -0.4309852110        0.6433176304
 C          6.3470942402       -1.7085168314        1.0587381792
 C          5.5930210401       -2.7928015809        0.6357010082
 C          4.5084304501       -2.6091987701       -0.2078069316
 C          4.1679520101       -1.3338447597       -0.6309790804
 H          3.3345538801       -1.1542337891       -1.2894882802
 H          3.9239167300       -3.4531755498       -0.5378344023
 H          5.8531653801       -3.7873079312        0.9622326573
 H          7.1930668002       -1.8549561220        1.7108174190
 H          6.5738029703        0.4381938487        0.9399848211
 H          4.0653023004        2.3216119085        1.3424018530
 H          2.9026322104        1.4209635569        3.1530646422
 H          0.9940479404        0.0693205762        3.9429413911
 H         -0.5502190797       -0.9601123022        2.3163287802
 H         -0.6249679499       -1.8894941000       -0.0760024207
 C         -0.1541063399       -0.7154252084       -1.7981313396
 C          0.7891740000       -1.7069179779       -2.4086584706
 C         -0.6685012500       -1.7474405575       -2.7547662705
 H         -0.9767501100       -1.4290901166       -3.7393632802
 H         -1.2688845100       -2.5470628979       -2.3459426512
 H          1.4865508700       -1.3606984273       -3.1574058703
 H          1.1721938800       -2.4875326285       -1.7685331913
 H         -0.1160759099        0.3095170619       -2.1505086987
