  62
        -98.93736546
 C          1.8680625457        0.5531032562       -0.7814203999
 C          2.2152329121        0.1082243622        0.5151084948
 C          3.6503466150        0.1454690000        0.8527456779
 C          4.5267272772        0.5975078231       -0.0610430826
 C          6.0235573062        0.6704579268        0.0640661416
 C          6.6801874219       -0.5932894576       -0.5168834785
 C          6.8206607402       -1.7554939729        0.4654598836
 H          7.1734160938       -2.6195680028       -0.1023327242
 H          7.5897230636       -1.5116412305        1.2014681384
 C          5.5392689230       -2.1442353692        1.2076247711
 H          4.6968638248       -2.1422388899        0.5136570733
 H          5.6591525184       -3.1679010181        1.5676740156
 C          5.2334531187       -1.2301934471        2.4035642652
 H          6.1124017737       -0.6236515137        2.6213731769
 H          5.0534626603       -1.8426475971        3.2894860685
 C          4.0065852272       -0.3206606426        2.2380030814
 H          3.1128372755       -0.8458606801        2.5891243632
 H          4.1239747621        0.5575180944        2.8817361723
 H          6.0901916128       -0.9098157935       -1.3808458922
 H          7.6771114129       -0.3348906228       -0.8797546126
 H          6.3435661048        1.5313459608       -0.5267797046
 H          6.3169858692        0.8266827552        1.0978548522
 O          4.1462890939        1.0211487622       -1.2987113936
 C          2.8205822142        1.0106282537       -1.6902414493
 O          2.6187415628        1.4312491581       -2.8480724817
 H         -2.1249944143        0.0752014529       -0.2657457685
 C         -1.7061624780        1.0004447745        0.0934367192
 C         -0.4288352909        1.3839038518       -0.2856301575
 C          0.0692066614        2.5958065114        0.1857849457
 C         -0.6806540638        3.3872846318        1.0331883868
 C         -1.9547077345        3.0003014566        1.4096928895
 C         -2.4701359833        1.8032887759        0.9301687438
 N         -3.7564569956        1.3799243679        1.2952035936
 S         -4.7580197443        0.6760412137        0.1552387761
 O         -4.5202377011        1.2080938217       -1.1661973866
 O         -6.0943411145        0.8610436326        0.6813164872
 C         -4.3658122647       -1.0597590406        0.2013043120
 C         -4.4223389142       -1.7856729220       -0.9718818651
 C         -4.1707448441       -3.1484196572       -0.9313623868
 C         -3.8684037683       -3.7581247242        0.2762594353
 C         -3.8169047235       -3.0147617248        1.4457969985
 C         -4.0722632445       -1.6531633924        1.4130172869
 H         -4.0376709021       -1.0467296597        2.3025504612
 H         -3.5779899776       -3.4917413884        2.3827241108
 H         -3.6701935897       -4.8180250426        0.3055859353
 H         -4.2103884527       -3.7273246147       -1.8406000111
 H         -4.6489791005       -1.2691089518       -1.8910113384
 H         -4.2621643057        2.0197236796        1.8903982168
 H         -2.5440590082        3.6196045407        2.0688128906
 H         -0.2740840900        4.3187020230        1.3980443868
 H          1.0601625018        2.9070126697       -0.1166134865
 C          0.4153494584        0.5482311669       -1.2176406994
 H          0.3928747508        1.0262554032       -2.2088892723
 C         -0.0754952256       -0.8788437066       -1.3549990966
 C         -1.1186148272       -1.2316257059       -2.3708578233
 C          0.3034387826       -1.6556793032       -2.5787312221
 H          0.5511795602       -2.7008480294       -2.4712252821
 H          0.8887758828       -1.1422932773       -3.3280858833
 H         -1.8452750906       -1.9885494981       -2.1167901622
 H         -1.5098371136       -0.4345011988       -2.9855709380
 H         -0.0844402545       -1.4059887453       -0.4077718421
 O          1.3708547534       -0.3041671850        1.3523424554
