  62
        -98.94207034
 C         -2.7023466841       -1.0749493347        0.3428791802
 C         -2.3320815492       -0.3543510851       -0.8215783029
 C         -2.8780345137        1.0060891595       -0.9282797862
 C         -3.7238592617        1.4695401980        0.0085645445
 C         -4.3662360251        2.8296567260        0.0300869591
 C         -3.4883779995        3.9133606461        0.6714298340
 C         -2.2841448161        4.3521791769       -0.1633889595
 H         -2.6185396927        4.6309245920       -1.1631360521
 H         -1.8758998773        5.2490742935        0.3065984836
 C         -1.1687486735        3.3016732799       -0.2706064052
 H         -1.2998275242        2.5464189354        0.5091770736
 H         -0.1964165937        3.7681159946       -0.0909238234
 C         -1.0850950788        2.6007327029       -1.6268391676
 H         -0.8343401285        3.3324750736       -2.3983691477
 H         -0.2680011530        1.8743866439       -1.5819894782
 C         -2.3710199323        1.8708409797       -2.0417424982
 H         -3.1302391844        2.5916248701       -2.3453206320
 H         -2.1381173517        1.2240136384       -2.8908257995
 H         -4.1205089160        4.7871384184        0.8447548952
 H         -3.1441940890        3.5535804975        1.6440926880
 H         -5.2807600641        2.7345399923        0.6194018218
 H         -4.6328536718        3.1271651680       -0.9839543125
 O         -4.1057051198        0.7225677170        1.0790798216
 C         -3.5538774755       -0.5301897692        1.3057090837
 O         -3.8963606372       -1.0497189900        2.3872567809
 O         -1.5823489219       -0.8049152728       -1.7237121742
 C         -2.0749422708       -2.4208638125        0.6702273293
 C         -0.5900520195       -2.3318745983        0.4083800875
 C          0.1117635749       -3.2000707974       -0.4156102830
 C          1.4644396085       -3.0095360606       -0.6420305814
 C          2.1431177746       -1.9553502196       -0.0595375330
 C          1.4503809948       -1.0819780215        0.7688762989
 C          0.1025121064       -1.2865690340        1.0087596249
 H         -0.4372837680       -0.5970760969        1.6491298516
 N          2.1297195871        0.0059590736        1.3557755115
 S          2.8273823808        1.1068751551        0.2878932306
 O          2.8847346668        2.3557457303        1.0177610197
 O          2.1401183906        1.1333891189       -0.9808406445
 C          4.4800862718        0.4794186856        0.0780149533
 C          4.9300521497        0.1326192455       -1.1805792600
 C          6.2189995062       -0.3589827650       -1.3188012181
 C          7.0297447197       -0.4936515502       -0.2021343240
 C          6.5631200598       -0.1382542284        1.0549059177
 C          5.2762100211        0.3545981865        1.1997388918
 H          4.8749277035        0.6459844863        2.1559742115
 H          7.1967056268       -0.2445052890        1.9206673651
 H          8.0313542607       -0.8782182571       -0.3122578356
 H          6.5832323549       -0.6356753606       -2.2951362654
 H          4.2601309563        0.2485004046       -2.0177931670
 H          1.5644412555        0.5071111102        2.0269929790
 H          3.1922924649       -1.7946911221       -0.2476294751
 H          1.9953579280       -3.6869392860       -1.2933874588
 H         -0.4053972371       -4.0070648319       -0.9077997418
 H         -2.2196938991       -2.5438442602        1.7569480467
 C         -2.7424161738       -3.6163186560        0.0090037125
 C         -4.1849459570       -3.5662874063       -0.3952303417
 C         -3.1151654298       -3.6239140306       -1.4418180131
 H         -2.9931633269       -4.5427995463       -1.9965789372
 H         -2.9025206692       -2.7352933081       -2.0142925198
 H         -4.7936707900       -4.4424076910       -0.2289176220
 H         -4.7129363539       -2.6345606195       -0.2513405746
 H         -2.3968933188       -4.5557219678        0.4294750265
