  62
        -98.94280787
 C          1.3897609911        1.3887835033        0.6713832603
 C          1.8461631458        1.0236430410       -0.6195809581
 C          2.7064189271       -0.1661804859       -0.6772003740
 C          2.9842733282       -0.8528076216        0.4449203910
 C          3.8886676483       -2.0508414236        0.5494012021
 C          3.2076790020       -3.3840809218        0.2142506652
 C          2.8832548341       -3.5976553097       -1.2645408998
 H          3.7823246648       -3.4341650419       -1.8595806398
 H          2.6019586704       -4.6455807112       -1.3829377617
 C          1.7438139157       -2.7173694717       -1.7973075778
 H          1.1718003918       -2.3109350514       -0.9601262466
 H          1.0553917959       -3.3276509806       -2.3852506777
 C          2.2000401365       -1.5634597549       -2.6900185725
 H          1.3192156353       -0.9832643765       -2.9772778967
 H          2.6553483179       -1.9596237743       -3.6004800310
 C          3.1975231309       -0.6078753826       -2.0225683794
 H          4.1746373247       -1.0827536359       -1.9355070509
 H          3.2940017081        0.2809380299       -2.6509246557
 H          2.2913611549       -3.4582094461        0.8014359625
 H          3.8803020865       -4.1824370099        0.5362653982
 H          4.2320903717       -2.0908114962        1.5855288096
 H          4.7554272965       -1.9086699054       -0.0968957128
 O          2.4735099544       -0.5060042222        1.6571642520
 C          1.6525404004        0.6016292984        1.7947379941
 O          1.2225043873        0.7756761378        2.9536296275
 O          1.5700831151        1.6530569214       -1.6722799462
 C          0.4947672962        2.5970962211        0.8827914406
 C         -0.6205602847        2.5882764262       -0.1341412608
 C         -0.8874819060        3.6316279969       -1.0094775267
 C         -1.9436640529        3.5401364011       -1.8996057740
 C         -2.7632175160        2.4271157510       -1.9190341214
 C         -2.5040115132        1.3759538431       -1.0455335449
 C         -1.4325742933        1.4611700701       -0.1740219250
 H         -1.2251524626        0.6409451650        0.4973542643
 N         -3.3063264072        0.2259115124       -1.0427264656
 S         -3.6445813077       -0.5874625956        0.3789290741
 O         -4.9125439834       -1.2382534310        0.1236763695
 O         -3.5997420504        0.2924102256        1.5224666382
 C         -2.3910830523       -1.8465895976        0.4964375342
 C         -1.4616741526       -1.8185302551        1.5162998257
 C         -0.5324360989       -2.8435529597        1.6060039747
 C         -0.5535712212       -3.8778305450        0.6831904758
 C         -1.4911540795       -3.8899286693       -0.3387408424
 C         -2.4184076010       -2.8663396248       -0.4354515891
 H         -3.1733027791       -2.8464344672       -1.2036450842
 H         -1.5012849398       -4.6951827900       -1.0551632691
 H          0.1622477202       -4.6810224035        0.7617711847
 H          0.2006121172       -2.8197798942        2.3981016418
 H         -1.4730980134       -1.0054245509        2.2272173328
 H         -4.1062757912        0.2615726780       -1.6570803988
 H         -3.5924492872        2.3639988203       -2.6073280041
 H         -2.1361581601        4.3526283846       -2.5839698355
 H         -0.2574681938        4.5057742301       -1.0117410328
 H          0.0319311285        2.4382791221        1.8720756012
 C          1.2350940960        3.9236439789        0.9642660280
 C          2.6614763033        3.9846799151        1.4216489055
 C          2.3161391634        4.3057358946        0.0001099105
 H          2.3748042506        5.3364261816       -0.3183969459
 H          2.5734021610        3.5949276583       -0.7683137650
 H          2.9552831556        4.7903518650        2.0777518094
 H          3.1599424279        3.0487153115        1.6295824201
 H          0.5879918785        4.7235864176        1.3119545272
