  62
        -98.93925105
 C         -2.6564218302       -1.2751692469        0.3831925496
 C         -2.9172100682       -0.1405455521        1.1940316839
 C         -4.0239718729        0.7222463117        0.7713293803
 C         -4.7368217124        0.3990066624       -0.3229406611
 C         -5.9150194116        1.1581960753       -0.8700262129
 C         -5.5317715378        2.3360887206       -1.7761438778
 C         -4.9397013672        3.5464368873       -1.0530465281
 H         -4.9198602572        4.3700859482       -1.7693922090
 H         -5.6004128334        3.8405268541       -0.2369593653
 C         -3.5187588377        3.3289616016       -0.5138192167
 H         -3.0715856327        2.4581083271       -0.9993048946
 H         -2.8950336369        4.1888744743       -0.7687363982
 C         -3.4354201167        3.1451629666        1.0017318427
 H         -3.7512726086        4.0643297235        1.5004934264
 H         -2.3901639262        2.9615725249        1.2658085762
 C         -4.2748717338        1.9810673675        1.5448313442
 H         -3.9796129446        1.7998220477        2.5812982973
 H         -5.3336673659        2.2384877782        1.5219244341
 H         -6.4383011695        2.6572008171       -2.2941955451
 H         -4.8253247849        1.9814472609       -2.5301094142
 H         -6.5335730229        1.5167957731       -0.0468721830
 H         -6.4969120266        0.4461274344       -1.4590902901
 O         -4.4663609302       -0.7032637289       -1.0672891243
 C         -3.4026705090       -1.5478663486       -0.7641120947
 O         -3.2582952936       -2.4763329112       -1.5788282605
 O         -2.2562789105        0.1291783400        2.2339700101
 C         -1.4893546660       -2.1497902807        0.8070589672
 C         -0.2221495670       -1.6128186506        0.1923851643
 C         -0.0953823720       -1.4729014867       -1.1868816396
 C          1.0597168071       -0.9438748431       -1.7318355258
 C          2.1033483842       -0.5347014515       -0.9188530590
 C          1.9769140711       -0.6467358667        0.4586121918
 C          0.8212751060       -1.1940136179        1.0032842796
 H          0.7204994103       -1.2682792492        2.0777013603
 N          3.0269621008       -0.2279345853        1.2907853321
 S          3.7650798351        1.2485031951        0.9836721407
 O          4.3358679125        1.6503336097        2.2505462811
 O          2.8547267131        2.1816629203        0.3620315495
 C          5.0835207744        0.8339837085       -0.1397707928
 C          5.9575521544       -0.1725497916        0.2218399537
 C          6.9932014010       -0.5001552016       -0.6384578944
 C          7.1391092808        0.1824969608       -1.8370038090
 C          6.2558859113        1.1933318931       -2.1836823906
 C          5.2168097200        1.5251132758       -1.3280531492
 H          4.5023415675        2.2994521743       -1.5589495920
 H          6.3708254003        1.7233644199       -3.1155607295
 H          7.9457498845       -0.0747876404       -2.5051221761
 H          7.6819780939       -1.2857862788       -0.3727064651
 H          5.8118005970       -0.6767399780        1.1624408211
 H          2.8344399124       -0.3345332792        2.2764495381
 H          3.0004108698       -0.1132287670       -1.3417151941
 H          1.1488142459       -0.8446790891       -2.8031469669
 H         -0.9158757235       -1.7763439839       -1.8202189327
 H         -1.4141214450       -2.0010545205        1.8962793763
 C         -1.7100184450       -3.6358101825        0.5683359881
 C         -0.9080741065       -4.4550921565       -0.3936273277
 C         -0.7028451667       -4.6238513519        1.0797666473
 H         -1.0554596175       -5.5255939044        1.5568083581
 H          0.2070726160       -4.2252164312        1.5033777624
 H         -1.4272226721       -5.2274741653       -0.9400690816
 H         -0.1320293863       -3.9677584631       -0.9618179371
 H         -2.7544616625       -3.9103920145        0.6719716516
