  62
        -98.94056092
 C         -1.7474098470       -0.8010420458        0.1778289444
 C         -3.0517469453       -1.0368180097        0.6684919669
 C         -4.0008808111        0.0873228296        0.5864379359
 C         -3.5930920795        1.2584733337        0.0621761637
 C         -4.3163700264        2.5776695063       -0.1130154372
 C         -5.8336707271        2.6626622564        0.0297271064
 C         -6.6202408229        1.9382223718       -1.0622294331
 H         -7.6806545357        1.9788064034       -0.8038122839
 H         -6.4866168611        2.4782341166       -2.0030479143
 C         -6.2239713816        0.4842565654       -1.3067247774
 H         -5.1919114976        0.4390750175       -1.6607720148
 H         -6.8559121794        0.0961871458       -2.1102829187
 C         -6.3776485759       -0.4464190674       -0.1054048443
 H         -6.2147720141       -1.4683806653       -0.4584528940
 H         -7.3974332168       -0.3849789145        0.2795172067
 C         -5.3989294704       -0.1968207653        1.0550596164
 H         -5.7546312174        0.5956272886        1.7091234194
 H         -5.3420173263       -1.1127009089        1.6506336884
 H         -6.0922229021        3.7235366654       -0.0275491412
 H         -6.1399968387        2.3175637301        1.0127756188
 H         -4.0298119395        2.9437545675       -1.1040505784
 H         -3.8623304444        3.2630822899        0.6111250527
 O         -2.3159234508        1.4414824876       -0.3860446019
 C         -1.3703966689        0.4304162666       -0.3517444309
 O         -0.2585846559        0.7525419525       -0.8101158519
 O         -3.4087291808       -2.1380481905        1.1671985955
 C         -0.7282161521       -1.9246540461        0.2151899737
 C          0.4921118224       -1.4944085476        0.9896411362
 C          0.3266262376       -1.0139952320        2.2872941451
 C          1.4134178430       -0.6093468180        3.0366347101
 C          2.6907689484       -0.6666760587        2.5051619544
 C          2.8680532510       -1.1483959541        1.2149798339
 C          1.7739173874       -1.5689125200        0.4690084634
 H          1.9453332874       -1.9325545853       -0.5297012882
 N          4.1561027081       -1.2447365628        0.6537414559
 S          4.4913572402       -0.4641671139       -0.7898985251
 O          3.6331449511       -0.9642826621       -1.8311007262
 O          5.9122264870       -0.6559910270       -0.9860419529
 C          4.1695781896        1.2581764207       -0.4540740755
 C          5.2393933550        2.0752686587       -0.1402489522
 C          5.0014619455        3.3997335348        0.1870095714
 C          3.7007330725        3.8811272056        0.2053092332
 C          2.6395342888        3.0464982169       -0.1077425496
 C          2.8688044968        1.7198972895       -0.4413509561
 H          2.0487819383        1.0640935803       -0.6886965075
 H          1.6234634478        3.4083362858       -0.0967208414
 H          3.5120481646        4.9114253770        0.4633966551
 H          5.8265818670        4.0503742189        0.4283482518
 H          6.2330561182        1.6579923116       -0.1710264947
 H          4.8988619410       -1.0518840712        1.3117422781
 H          3.5422709830       -0.3460995148        3.0862012611
 H          1.2670352346       -0.2402293048        4.0404661280
 H         -0.6723728780       -0.9626816172        2.6988225378
 H         -1.2144847868       -2.7426230412        0.7675344921
 C         -0.4212808943       -2.4040958034       -1.1877893423
 C          0.0301444140       -3.8141593766       -1.4187129464
 C         -1.3440830315       -3.3886520179       -1.8383672586
 H         -1.5533306469       -3.2811252849       -2.8922207056
 H         -2.1870827851       -3.7354387712       -1.2585140160
 H          0.7697272957       -3.9972259225       -2.1838804242
 H          0.1206604961       -4.4570001626       -0.5561219244
 H          0.0008156126       -1.6269404127       -1.8164398013
