  62
        -98.93830927
 C         -1.8711200369       -0.7705758671       -0.2436631401
 C         -2.4683411534       -0.1453745453        0.8749230191
 C         -3.5435694289        0.8192995702        0.5906423799
 C         -3.8721664176        1.0807444479       -0.6863052158
 C         -4.8996462006        2.0529262556       -1.2102978944
 C         -6.2541029729        2.1107553409       -0.4906417961
 C         -6.7370065671        0.7750988845        0.0935065135
 H         -7.7593949329        0.5906786623       -0.2414373128
 H         -6.1190670297       -0.0425083078       -0.2815145849
 C         -6.7336850617        0.7570389793        1.6240086497
 H         -7.1315828956        1.7075130558        1.9862834500
 H         -7.4078281508       -0.0312839656        1.9674628362
 C         -5.3738160643        0.5039628843        2.2735098673
 H         -5.0697506491       -0.5324180385        2.1035438505
 H         -5.4875437923        0.6314871040        3.3527531762
 C         -4.2300124626        1.4098262564        1.7888460120
 H         -4.5819132412        2.4202728449        1.5951915667
 H         -3.4756553742        1.4497029877        2.5795924953
 H         -6.2122732729        2.8521687094        0.3061274801
 H         -6.9815021245        2.4742096335       -1.2185206258
 H         -4.4526694092        3.0515831273       -1.2126886433
 H         -5.0517744086        1.7680651840       -2.2541861066
 O         -3.2441561191        0.4806744560       -1.7370544789
 C         -2.2385400782       -0.4555382678       -1.5510089712
 O         -1.7656682281       -0.9178299025       -2.6056498983
 H          0.3216165750        0.6064031709        0.2973234262
 C          0.9324372221       -0.0092683794       -0.3514844663
 C          0.5181753404       -1.3050494501       -0.6378711618
 C          1.3197590384       -2.0892908578       -1.4559628290
 C          2.4844569873       -1.5733382681       -1.9994121637
 C          2.8799858665       -0.2764064735       -1.7321364716
 C          2.0963370687        0.5098515870       -0.8958314801
 N          2.4986220664        1.8231755149       -0.6007152182
 S          4.1076922918        2.0857487355       -0.2234126657
 O          4.1106211967        3.2563841058        0.6257761343
 O          4.8807028485        2.1883876906       -1.4360863315
 C          4.6160300494        0.6429026073        0.6950555515
 C          3.9528488401        0.3538022307        1.8712992516
 C          4.3108409583       -0.7806185354        2.5810522864
 C          5.3208614425       -1.6027578504        2.1047851843
 C          5.9809198553       -1.2957001411        0.9253450848
 C          5.6255501140       -0.1631964686        0.2101512591
 H          6.1102737035        0.1114610534       -0.7124701430
 H          6.7672934491       -1.9354106739        0.5586559057
 H          5.5941450061       -2.4871564667        2.6583344819
 H          3.7977392626       -1.0202334636        3.4986617993
 H          3.1744271407        1.0149006633        2.2179107095
 H          1.8857633934        2.3084942533        0.0372487354
 H          3.7726721868        0.1454417409       -2.1645018037
 H          3.0904434425       -2.1898263019       -2.6453905824
 H          1.0277909519       -3.1017726591       -1.6797639971
 C         -0.7689889763       -1.7892724776       -0.0168609135
 H         -0.6271121966       -1.8251690950        1.0736818402
 C         -1.2030176558       -3.1579435053       -0.4964700358
 C         -0.6443958536       -4.3936548418        0.1415058607
 C         -2.0661688670       -3.9959439360        0.3970233522
 H         -2.8567405526       -4.5802282256       -0.0495588595
 H         -2.3191604244       -3.5897048317        1.3656535737
 H          0.0684775831       -4.2642589658        0.9414734372
 H         -0.4596261358       -5.2564399582       -0.4803449561
 H         -1.4162506799       -3.1783406038       -1.5592818572
 O         -2.1078430610       -0.3704527111        2.0621709897
