  62
        -98.93926790
 C          2.4081954070        0.9406976638        0.5370122969
 C          2.4500711537       -0.3837159009        0.0335294307
 C          3.6858533763       -1.1309795666        0.3148769033
 C          4.6565873325       -0.5761555733        1.0610273300
 C          5.9614299502       -1.2195367329        1.4442426154
 C          7.0551948867       -1.0933545059        0.3748580003
 C          6.8566460493       -1.9668150671       -0.8645772248
 H          7.7930941953       -1.9441645686       -1.4254827142
 H          6.6865047483       -2.9989657886       -0.5567532258
 C          5.7184623125       -1.5087799981       -1.7872878563
 H          6.0625403544       -1.5214125708       -2.8240165066
 H          5.4525120138       -0.4753390466       -1.5526373716
 C          4.4590608078       -2.3728754160       -1.7176958278
 H          4.6852610323       -3.3790949463       -2.0772875279
 H          3.7088816911       -1.9394812948       -2.3845007133
 C          3.8428390357       -2.4814452912       -0.3164708205
 H          2.8470173521       -2.9211766410       -0.4117317156
 H          4.4529951360       -3.1282751987        0.3133241606
 H          8.0018936756       -1.3734515792        0.8424878373
 H          7.1309733318       -0.0457313597        0.0741166012
 H          5.7975731408       -2.2720229998        1.6768338972
 H          6.3039393272       -0.7121836337        2.3486895085
 O          4.5462266547        0.6726715861        1.5875672712
 C          3.4391318594        1.4613698471        1.3254623561
 O          3.4836169122        2.5905797284        1.8536873457
 O          1.5243621570       -0.9281889703       -0.6204004784
 C          1.2262123711        1.8640474837        0.2936464717
 C         -0.0704732051        1.1569027958        0.5968467736
 C         -0.4316075232        0.9464299787        1.9240731091
 C         -1.6167979346        0.3107938444        2.2432123380
 C         -2.4662239857       -0.1310690543        1.2440015947
 C         -2.1100408296        0.0648071567       -0.0828002760
 C         -0.9236523260        0.7107548024       -0.3999488578
 H         -0.6517781722        0.8424428638       -1.4362552713
 N         -2.9767055174       -0.3920680673       -1.1000671920
 S         -4.4548384401        0.4035719718       -1.2029382154
 O         -4.9116092098        0.2006512745       -2.5607903880
 O         -4.3413159913        1.7770640389       -0.7646333606
 C         -5.5098348963       -0.5008414984       -0.0907531211
 C         -5.7892187695       -1.8213814164       -0.3838770642
 C         -6.6133015868       -2.5360500418        0.4707214912
 C         -7.1425064678       -1.9210205807        1.5958203919
 C         -6.8541733783       -0.5937252005        1.8746114790
 C         -6.0297239862        0.1265845893        1.0242752280
 H         -5.7741994671        1.1589138753        1.2018835229
 H         -7.2667142500       -0.1175645089        2.7496046407
 H         -7.7842128154       -2.4793722113        2.2590591513
 H         -6.8405494947       -3.5681542367        0.2573464756
 H         -5.3626035859       -2.2582710414       -1.2713401493
 H         -2.5364312576       -0.4133818252       -2.0093976884
 H         -3.3892035220       -0.6339926814        1.4832166422
 H         -1.8818396408        0.1566636559        3.2781583425
 H          0.2342585116        1.2889015698        2.7048575474
 H          1.3440890855        2.6738124898        1.0318844359
 C          1.2282609559        2.5283543044       -1.0762385703
 C          2.5115294219        3.0070668792       -1.6851098254
 C          1.7674906368        1.8653798364       -2.3064682090
 H          1.2569065071        2.0372464313       -3.2433748245
 H          2.1730697137        0.8709092881       -2.2088356774
 H          2.5176515073        3.9590559270       -2.1940276100
 H          3.4244233881        2.7922198371       -1.1485264988
 H          0.3617423497        3.1700888630       -1.2106789646
