  62
        -98.94310024
 C         -2.0400818177       -1.0987428032        0.2254276898
 C         -2.6818786932       -0.2517572885        1.1669471558
 C         -4.0885245779        0.0662737223        0.9054172398
 C         -4.6961951453       -0.4506056759       -0.1778935496
 C         -6.1368430498       -0.2554870191       -0.5654843142
 C         -6.4066961690        1.0395249744       -1.3434110561
 C         -6.3376022534        2.3218479016       -0.5133196184
 H         -6.7574240260        3.1228810809       -1.1249992371
 H         -6.9725773883        2.2183292442        0.3671714110
 C         -4.9189233066        2.7213115182       -0.0838045192
 H         -4.1881736097        2.1867226685       -0.6954474067
 H         -4.7691200525        3.7875864492       -0.2681585632
 C         -4.6075129241        2.4692819885        1.3916003446
 H         -5.2439236256        3.1028347196        2.0135690150
 H         -3.5679297652        2.7534822377        1.5745823612
 C         -4.7862830577        1.0116133078        1.8360190771
 H         -4.3370968626        0.8973159348        2.8256427649
 H         -5.8461861522        0.7666447006        1.9027303781
 H         -5.6981769284        1.1036967817       -2.1724703393
 H         -7.4098233634        0.9610562803       -1.7688748031
 H         -6.4037976845       -1.1013708222       -1.2026597674
 H         -6.7625612023       -0.2818422421        0.3271802898
 O         -4.0489952715       -1.2545621252       -1.0589912004
 C         -2.7079305972       -1.5797247301       -0.9014549194
 O         -2.2633004130       -2.2960794398       -1.8186752212
 O         -2.1038559421        0.2065590665        2.1893500413
 C         -0.5838663391       -1.4358611556        0.4971601432
 C          0.3335849612       -0.5485739724       -0.3094850382
 C          0.4831703879       -0.7045248626       -1.6832795307
 C          1.3469743507        0.1124600665       -2.3903611582
 C          2.0843040974        1.0903518195       -1.7456136153
 C          1.9401171704        1.2544375254       -0.3748220834
 C          1.0690105014        0.4374382469        0.3328964765
 H          0.9491939476        0.5779423075        1.3989418424
 N          2.7174766383        2.2252147612        0.2890951812
 S          4.3777185843        2.0625424810        0.1012824555
 O          4.9623311200        2.6933485517        1.2631831135
 O          4.7693457203        2.6005374143       -1.1765766633
 C          4.6450691103        0.2990627201        0.1327904389
 C          4.8997878132       -0.3795983542       -1.0412355533
 C          5.0126186359       -1.7602747090       -1.0051530307
 C          4.8655648389       -2.4344851863        0.1966284018
 C          4.6160420608       -1.7376249956        1.3691415975
 C          4.4994865944       -0.3577826974        1.3388158570
 H          4.3108619317        0.2177666642        2.2311485102
 H          4.5068073877       -2.2655499216        2.3031361304
 H          4.9463663619       -3.5096388799        0.2220277111
 H          5.2082212481       -2.3049703601       -1.9145788192
 H          5.0078629107        0.1820214541       -1.9543297851
 H          2.4844765777        2.3221904300        1.2672437218
 H          2.7693809336        1.7285756445       -2.2801885839
 H          1.4502378642       -0.0155720885       -3.4571688452
 H         -0.0984342472       -1.4575018535       -2.1916547991
 H         -0.4326560339       -1.1886357646        1.5567266569
 C         -0.2412032839       -2.8987392357        0.2943350500
 C          1.0481139133       -3.4152560486        0.8573871141
 C         -0.2561533629       -3.8259005032        1.4705955211
 H         -0.6020077149       -4.8379068484        1.3227444628
 H         -0.5226898124       -3.4114350774        2.4320758548
 H          1.6010444317       -4.1452675858        0.2874437146
 H          1.6696440948       -2.7174155130        1.3982411152
 H         -0.5726442189       -3.2948398232       -0.6558492466
