  62
        -98.93889039
 C         -1.8214834852       -1.3068618285        0.3939258684
 C         -1.6455106000       -0.0896369956       -0.3067216131
 C         -2.4637408683        1.0478361883        0.1525574586
 C         -3.3227535794        0.8776105843        1.1719761633
 C         -4.2315746769        1.8970508247        1.8123085369
 C         -4.9899655565        2.8540071901        0.8814546510
 C         -5.3782081989        2.2655092377       -0.4830571291
 H         -5.2248821237        1.1849814638       -0.4827209291
 H         -6.4415078212        2.4427332869       -0.6548827943
 C         -4.6040715418        2.8918841474       -1.6456456981
 H         -4.5530009806        3.9717151818       -1.4893864215
 H         -5.1613605155        2.7220816692       -2.5699791778
 C         -3.1916083224        2.3500996874       -1.8621305906
 H         -3.2416450863        1.3296657205       -2.2508043122
 H         -2.7113272476        2.9631308466       -2.6284116174
 C         -2.2949691656        2.3283659539       -0.6138855911
 H         -1.2535828694        2.3462097499       -0.9469318920
 H         -2.4708926208        3.1990738994        0.0134557750
 H         -4.3974298216        3.7542966738        0.7237201337
 H         -5.8910149075        3.1624409558        1.4144000969
 H         -4.9460858932        1.3116388588        2.3962228125
 H         -3.6407921662        2.4827560486        2.5231169606
 O         -3.4612299221       -0.3166021325        1.8161152983
 C         -2.7171604610       -1.4278047949        1.4537224801
 O         -2.9377578169       -2.4435104516        2.1452395677
 H          0.2950128485       -0.9051269641        1.6796547957
 C          0.9721261020       -1.3755027959        0.9767708916
 C          0.4645224081       -2.2494060481        0.0249571830
 C          1.3533363389       -2.8437981724       -0.8631994618
 C          2.7078268281       -2.5659636959       -0.7970337115
 C          3.2056086498       -1.6794700918        0.1399338786
 C          2.3242043402       -1.0724611063        1.0254438817
 N          2.8093272712       -0.1340152434        1.9515874421
 S          3.9126265941        1.0000168390        1.4005317894
 O          5.2455707327        0.4590423168        1.5119313762
 O          3.6561618343        2.1880850870        2.1864146720
 C          3.5345879181        1.2875056671       -0.3207406417
 C          2.2304066126        1.5499461028       -0.6891592628
 C          1.9383636151        1.7446201650       -2.0288735060
 C          2.9527842714        1.6904096936       -2.9719551837
 C          4.2606421316        1.4422824574       -2.5852003529
 C          4.5558295523        1.2316465325       -1.2481062989
 H          5.5546896274        1.0164258943       -0.9044478134
 H          5.0480213528        1.4020145253       -3.3205753572
 H          2.7187971661        1.8389963047       -4.0142820071
 H          0.9145745931        1.9060963299       -2.3254101913
 H          1.4504296697        1.5816696994        0.0552066690
 H          2.0882696955        0.3041755749        2.5055444186
 H          4.2565209652       -1.4462951343        0.2013652067
 H          3.3850490502       -3.0397628208       -1.4907152291
 H          0.9834725136       -3.5260315617       -1.6107840340
 C         -1.0191289982       -2.5316940489       -0.0014370271
 H         -1.2345708858       -3.2954224272        0.7610465471
 C         -1.4950789644       -3.0421958151       -1.3481922371
 C         -1.5236747219       -4.5113061916       -1.6415078740
 C         -2.8047917124       -3.7662565421       -1.4209999340
 H         -3.4510849233       -3.5836131377       -2.2664600386
 H         -3.3355468564       -3.9211054918       -0.4923505823
 H         -1.1932716176       -5.1850575089       -0.8652437311
 H         -1.2928344346       -4.8423449200       -2.6429150493
 H         -1.2535552432       -2.3617913864       -2.1567151572
 O         -0.8356413497        0.0520601970       -1.2565952695
