  62
        -98.94443801
 C         -1.2441737353       -1.3759517940        0.2801253066
 C         -1.4064724975       -0.3506696257       -0.6817673909
 C         -2.3745804057        0.7055662393       -0.3375007264
 C         -3.0063773398        0.6687464174        0.8491181546
 C         -4.0357583292        1.6597834876        1.3083739448
 C         -5.4514744498        1.2047699963        0.9277706752
 C         -5.5912791112        0.7818068781       -0.5346146459
 H         -4.9978302886       -0.1195710846       -0.7042964686
 H         -6.6371217626        0.5123005191       -0.6969009235
 C         -5.1779019702        1.8571798925       -1.5492104779
 H         -5.9289003024        1.8985324586       -2.3409407575
 H         -5.1618271381        2.8355442232       -1.0676116337
 C         -3.8303638455        1.6052893561       -2.2288669159
 H         -3.7403517309        2.2953979426       -3.0722054566
 H         -3.8083308721        0.5906700314       -2.6349771530
 C         -2.5901572327        1.7986509839       -1.3468670705
 H         -2.6356021040        2.7752191977       -0.8598943853
 H         -1.7134128055        1.7850075688       -2.0017927430
 H         -6.1452550727        2.0201126342        1.1402752181
 H         -5.7230622831        0.3541322756        1.5569743265
 H         -3.9713897437        1.7436814110        2.3945293593
 H         -3.8246847044        2.6306261744        0.8638462999
 O         -2.8062936230       -0.3173446580        1.7589761586
 C         -1.9414415877       -1.3635390125        1.4934835670
 O         -1.8780572327       -2.2143764171        2.4020421402
 O         -0.7868827724       -0.2914949467       -1.7772781726
 C         -0.2952787496       -2.5514134127        0.0966579615
 C          1.0977187930       -2.1665817395        0.5399713491
 C          1.5808339368       -2.6391529034        1.7560106437
 C          2.8520787007       -2.3101333860        2.1878992532
 C          3.6625914707       -1.4993510224        1.4153784393
 C          3.1882062971       -1.0124499448        0.2020282141
 C          1.9104747406       -1.3441558622       -0.2301691295
 H          1.5549773143       -0.9524731331       -1.1703587224
 N          4.0134543892       -0.1999614550       -0.5937714029
 S          3.4176928165        1.2099802788       -1.2692837121
 O          2.5771762100        0.9110840801       -2.3971580689
 O          4.6042313024        1.9908015310       -1.5516659703
 C          2.4949941341        1.9778904130        0.0483494773
 C          3.2022381375        2.6124386806        1.0515463148
 C          2.5081681029        3.1612851458        2.1166617427
 C          1.1256901230        3.0578254596        2.1653624510
 C          0.4316070015        2.4190663471        1.1501035754
 C          1.1206868915        1.8726614188        0.0781704969
 H          0.6141317652        1.3702342967       -0.7295191560
 H         -0.6435435848        2.3308026428        1.1854671776
 H          0.5834883749        3.4786926986        2.9974422229
 H          3.0432152458        3.6638180101        2.9062315173
 H          4.2750076628        2.6801716175        0.9703983047
 H          4.9271323161       -0.0339143275       -0.1960311729
 H          4.6587437634       -1.2449028875        1.7440795714
 H          3.2140943621       -2.6869315884        3.1321971798
 H          0.9415472065       -3.2600252811        2.3665425259
 H         -0.6545517402       -3.3244231514        0.7902002809
 C         -0.3023113493       -3.1363332177       -1.3005232757
 C          0.1631727702       -4.5475651050       -1.4908224403
 C         -1.2901564036       -4.2112814978       -1.6357262121
 H         -1.7280916018       -4.2182020985       -2.6226772083
 H         -1.9671870360       -4.5301281486       -0.8561210415
 H          0.7273590174       -4.7873654022       -2.3790235846
 H          0.4701090707       -5.0961309407       -0.6129654796
 H         -0.0692293767       -2.4212024450       -2.0778085544
