  62
        -98.93744954
 C         -2.1545135512       -0.9545573116       -0.1719051578
 C         -3.0393357639       -0.6277593980        0.8892912799
 C         -3.9064553106        0.5391313653        0.6877733657
 C         -3.8050397510        1.2500152968       -0.4491301075
 C         -4.5696753664        2.4971662580       -0.8063746380
 C         -6.0931734789        2.3373611365       -0.9744615763
 C         -6.9046720746        2.6456891595        0.2899700821
 H         -6.3208904875        3.3105751021        0.9277216175
 H         -7.8038213496        3.1953842438        0.0043330813
 C         -7.3629760339        1.4304801745        1.1018973626
 H         -7.6973398902        1.7881218032        2.0780856211
 H         -8.2231645740        0.9744957706        0.6065464263
 C         -6.3188753911        0.3330079565        1.3080113040
 H         -6.1990248892       -0.2382109990        0.3844234492
 H         -6.7012845348       -0.3652292251        2.0550880198
 C         -4.9301712338        0.8395482898        1.7437209926
 H         -4.9581116722        1.9071621548        1.9566823024
 H         -4.6087249425        0.3165176226        2.6465063978
 H         -6.3990198059        3.0365988703       -1.7542828898
 H         -6.3153854558        1.3336837535       -1.3359343682
 H         -4.3657673145        3.2605194788       -0.0518592319
 H         -4.1404370412        2.8401339268       -1.7501717186
 O         -2.9250406849        0.9214433722       -1.4324156454
 C         -2.0902061258       -0.1816197165       -1.3308244105
 O         -1.3641236060       -0.3421946136       -2.3334450547
 H          0.6302586293       -1.0171214151       -1.5321666456
 C          0.9762899066       -1.1641037364       -0.5200463707
 C          0.1282315223       -1.7442066589        0.4126824600
 C          0.5758887785       -1.8834086476        1.7216388383
 C          1.8421597835       -1.4581403726        2.0825766901
 C          2.6850701038       -0.8825012648        1.1487432630
 C          2.2408349684       -0.7242468496       -0.1572656648
 N          3.0842775541       -0.1238444319       -1.1116846816
 S          3.7189030837        1.3847575266       -0.7271136045
 O          2.8690049713        2.0981857052        0.1991368370
 O          3.9748094882        2.0297490792       -1.9966582605
 C          5.2764762742        0.9965743340        0.0456922897
 C          5.5367806937        1.4269942902        1.3319407065
 C          6.7562854530        1.1105960385        1.9105765163
 C          7.6889965497        0.3744816377        1.1961475205
 C          7.4137777107       -0.0467066325       -0.0964393612
 C          6.1970126928        0.2665744485       -0.6806763394
 H          5.9446470015       -0.0366960075       -1.6830052540
 H          8.1419051882       -0.6179177761       -0.6493878723
 H          8.6362557289        0.1281720972        1.6492615555
 H          6.9720533719        1.4381149385        2.9149121807
 H          4.7789943416        1.9928440364        1.8503743087
 H          2.6746880687       -0.1003885089       -2.0354024459
 H          3.6710740749       -0.5452612189        1.4236242499
 H          2.1763505342       -1.5745003167        3.1022263267
 H         -0.0862501064       -2.3116989342        2.4601616198
 C         -1.2675856607       -2.1735602554        0.0288790063
 H         -1.7016751597       -2.7004813611        0.8891053083
 C         -1.2658637756       -3.1151043267       -1.1587046922
 C         -0.8286813730       -4.5340749101       -0.9575702251
 C         -2.2720698681       -4.2235891174       -1.2142912635
 H         -2.6962895534       -4.4852196268       -2.1720962017
 H         -2.9671061228       -4.3092169691       -0.3917539569
 H         -0.2584981826       -5.0124070979       -1.7388661412
 H         -0.5446783078       -4.8310709788        0.0405473964
 H         -1.0088571871       -2.6350144368       -2.0937837801
 O         -3.1012437662       -1.2873798663        1.9605193156
