  62
        -98.94139993
 C         -1.6283084699       -1.1831695499        0.1535774904
 C         -1.6800609497        0.1648455100        0.5924490605
 C         -2.7782947197        0.9813031702        0.0669786105
 C         -3.6509208697        0.4386995903       -0.8014944095
 C         -4.8091266796        1.1445790204       -1.4531294195
 C         -6.0778199096        1.1958201705       -0.5910092595
 C         -6.0172576696        2.1544578204        0.5987880306
 H         -5.7003157495        3.1395440604        0.2550979306
 H         -7.0347616396        2.2551699005        0.9816410406
 C         -5.1046034196        1.6873527003        1.7413192205
 H         -4.8971927397        0.6205391603        1.6293785705
 H         -5.6213752696        1.8132915002        2.6954652605
 C         -3.7782932896        2.4406813901        1.8423434806
 H         -3.9694251095        3.4877320301        2.0879369206
 H         -3.1982141396        2.0045774900        2.6598711706
 C         -2.9201819595        2.3858056601        0.5715400606
 H         -3.3491162295        3.0260252502       -0.1993033294
 H         -1.9218529995        2.7538191400        0.8217004106
 H         -6.3004361497        0.1871989805       -0.2352158496
 H         -6.8997036296        1.5077257406       -1.2395896595
 H         -4.5135946696        2.1579677604       -1.7262414994
 H         -5.0364453197        0.5898152805       -2.3659312995
 O         -3.5578413598       -0.8506816497       -1.2153992796
 C         -2.5561879799       -1.6987118698       -0.7527010497
 O         -2.6197305400       -2.8467073398       -1.2269332297
 H          1.9914042301       -1.1714012203        1.3727929104
 C          1.9148904201       -1.4254182103        0.3264681804
 C          0.7159664501       -1.8890222601       -0.1927172296
 C          0.6436368001       -2.1927211000       -1.5497078497
 C          1.7547435401       -2.0445544901       -2.3585548996
 C          2.9469941001       -1.5686049302       -1.8392924996
 C          3.0253475901       -1.2499909403       -0.4894083396
 N          4.2189459502       -0.7586343604        0.0680636505
 S          4.1695003403        0.6399338895        0.9924986505
 O          5.5543234103        1.0425580294        1.1068595206
 O          3.4787976203        0.3863365395        2.2293115205
 C          3.2867521004        1.8098907897       -0.0239218994
 C          1.9100425304        1.8890086698        0.0336338906
 C          1.2580558705        2.7516511999       -0.8347024894
 C          1.9826301506        3.5169335299       -1.7342435993
 C          3.3663678406        3.4300832098       -1.7736165293
 C          4.0247452605        2.5644372096       -0.9166744393
 H          5.0986527405        2.4694408295       -0.9086370193
 H          3.9300163306        4.0301698897       -2.4696677793
 H          1.4655720606        4.1852133800       -2.4047320193
 H          0.1812286305        2.8099684700       -0.7974411794
 H          1.3532767004        1.2966088898        0.7430653406
 H          4.9863486002       -0.7100229405       -0.5875301595
 H          3.8106519801       -1.4442595702       -2.4746813096
 H          1.6900440801       -2.2919622100       -3.4073392697
 H         -0.2918091900       -2.5467893399       -1.9568294197
 C         -0.4893326199       -2.0245733001        0.7020751703
 H         -0.2320927699       -1.5548016202        1.6655133904
 C         -0.8717989401       -3.4681370101        0.9941729602
 C         -0.2887638101       -4.6458226301        0.2779016402
 C          0.1096542999       -4.3625248502        1.6930846102
 H         -0.2464217402       -5.0137924802        2.4768779702
 H          1.1007605399       -3.9677219003        1.8634748902
 H         -0.9436455602       -5.4802624100        0.0785867901
 H          0.4373081499       -4.4682956501       -0.4992799898
 H         -1.9102753901       -3.5605883800        1.2946972302
 O         -0.8401856397        0.6621828899        1.3902193305
