  62
        -98.93802530
 C         -1.6909375963       -1.5022617868       -0.0988529346
 C         -1.6348257842       -0.2767513591       -0.8054725365
 C         -2.9251615971        0.3952312561       -1.0464991109
 C         -4.0608311073       -0.1603473063       -0.5926484159
 C         -5.4748919228        0.3396583017       -0.7477357166
 C         -5.7229095894        1.8364297314       -0.5086845275
 C         -4.7923960905        2.4969673146        0.5194263501
 H         -5.3973446966        3.0477269798        1.2422546707
 H         -4.2390494592        1.7356679240        1.0722613561
 C         -3.8072280071        3.4836878386       -0.1129412212
 H         -4.3400165893        4.0794904508       -0.8576178534
 H         -3.4511133114        4.1694465595        0.6597952657
 C         -2.5726362397        2.8599482919       -0.7639926027
 H         -1.8960181156        2.4761698063        0.0056040398
 H         -2.0318203800        3.6530038329       -1.2869227613
 C         -2.8532039652        1.7177746040       -1.7537257291
 H         -3.7514973815        1.9125191341       -2.3349539014
 H         -2.0016659995        1.6524721923       -2.4363418342
 H         -5.6426509175        2.3742484911       -1.4523955629
 H         -6.7578018380        1.9362106225       -0.1773984043
 H         -5.8228677999        0.0750732678       -1.7502226146
 H         -6.0621998814       -0.2470802492       -0.0375644530
 O         -4.0687757575       -1.3422775227        0.0857791129
 C         -2.9000244779       -2.0287012660        0.3592480286
 O         -3.0663047515       -3.0839055497        1.0043763097
 H          1.8061088584       -0.6803193830        0.1747659647
 C          1.3905397447       -0.7637141425        1.1627003943
 C          0.2673677750       -1.5457723667        1.3772185108
 C         -0.2527926626       -1.6317825854        2.6667469750
 C          0.3430854388       -0.9541267314        3.7125547169
 C          1.4589520383       -0.1644244970        3.4912056675
 C          1.9795702120       -0.0635081090        2.2075874664
 N          3.1188074459        0.7164492551        1.9459604745
 S          3.0575202326        1.8229445279        0.6780156295
 O          4.1079085053        2.7718558825        0.9907513560
 O          1.7330840537        2.3762745992        0.5307227197
 C          3.5493795565        0.8858977133       -0.7522277494
 C          2.6560314100        0.6566677081       -1.7796693194
 C          3.0775114736       -0.0876708327       -2.8714392864
 C          4.3719091875       -0.5819105590       -2.9174300923
 C          5.2565869377       -0.3372503495       -1.8774916841
 C          4.8438281001        0.4046141631       -0.7829582986
 H          5.4984825792        0.6242616857        0.0438960130
 H          6.2620940428       -0.7242113309       -1.9165382057
 H          4.6909146274       -1.1627789024       -3.7687158399
 H          2.3858101403       -0.2821749999       -3.6760529027
 H          1.6465338941        1.0298388192       -1.6976572417
 H          3.5185688549        1.1492141695        2.7669630350
 H          1.9215740298        0.3719955891        4.3063557007
 H         -0.0667413681       -1.0342354640        4.7084035329
 H         -1.1349823373       -2.2349129391        2.8330424392
 C         -0.4325344869       -2.2800763982        0.2579632026
 H         -0.7821713420       -3.2412741098        0.6597559917
 C          0.4490497886       -2.5437864702       -0.9440112833
 C          1.5596477218       -3.5433658348       -0.8321281915
 C          0.3487416402       -3.8568147556       -1.6574059427
 H          0.4441725479       -3.8661864054       -2.7326617868
 H         -0.3562602469       -4.5815317977       -1.2764126717
 H          2.4900359366       -3.3364864002       -1.3385701894
 H          1.6752911749       -4.0548113673        0.1115381031
 H          0.6214467209       -1.6646845260       -1.5508596684
 O         -0.5728384784        0.2370836704       -1.2407517932
