  62
        -98.93636016
 C         -1.7734469996       -0.7708514337       -0.2847633100
 C         -3.0600491023       -1.3343550831       -0.1208346026
 C         -4.0874618171       -0.4476510196        0.4460688833
 C         -3.7510031904        0.8092551485        0.7892306228
 C         -4.6985608172        1.8531180406        1.3083057137
 C         -5.5269500253        2.4368624866        0.1459644743
 C         -7.0234478926        2.1349090266        0.2249554899
 H         -7.4756363732        2.7768202412        0.9839708526
 H         -7.4627597229        2.4042355850       -0.7379475979
 C         -7.3960993281        0.6862205326        0.5553296224
 H         -8.4545296824        0.5674580478        0.3137554236
 H         -7.3025330880        0.5187411484        1.6294385725
 C         -6.5987793837       -0.3978093006       -0.1816357395
 H         -7.2858689957       -1.2052146145       -0.4431490328
 H         -6.1949638667       -0.0097539782       -1.1170288992
 C         -5.4605265695       -1.0282655006        0.6427085488
 H         -5.7208321158       -1.0016165337        1.7046908234
 H         -5.3630542722       -2.0796964552        0.3559944912
 H         -5.1250471862        2.0459104015       -0.7910895937
 H         -5.3983883114        3.5198607930        0.1151193280
 H         -5.3504440024        1.4164828315        2.0617002342
 H         -4.0980550393        2.6333415695        1.7764384926
 O         -2.4990125835        1.3101326943        0.6289907753
 C         -1.4786092047        0.5403670156        0.0876098337
 O         -0.3858157622        1.1264333567       -0.0038100666
 H          2.0281162099       -1.3294070553       -1.4047002670
 C          1.8205838096       -1.5154925719       -0.3623361628
 C          0.5125655100       -1.6852162224        0.0647933726
 C          0.2846479143       -1.9322915512        1.4161856036
 C          1.3324867393       -1.9865008694        2.3147527743
 C          2.6366415207       -1.8094721377        1.8857546282
 C          2.8774788269       -1.5730410604        0.5396962310
 N          4.2064939985       -1.4131871420        0.0954022856
 S          5.0998572262       -0.1112185177        0.6509721792
 O          6.4148135675       -0.2704406548        0.0729356309
 O          5.0323473731       -0.0741895015        2.0889871136
 C          4.3154105034        1.3307133681       -0.0483750462
 C          3.0540606641        1.6807856791        0.3903977643
 C          2.4167734568        2.7624454746       -0.1962906284
 C          3.0532677187        3.4769793884       -1.1995688354
 C          4.3238696809        3.1177037315       -1.6244024214
 C          4.9600063197        2.0287968318       -1.0510581526
 H          5.9429098581        1.7070723759       -1.3556012185
 H          4.8152462182        3.6775785780       -2.4040750158
 H          2.5522782739        4.3175859608       -1.6538429579
 H          1.4162772850        3.0113061079        0.1183701331
 H          2.5739935669        1.1096664117        1.1685123211
 H          4.3025656151       -1.4730079040       -0.9089963621
 H          3.4640647286       -1.8324969480        2.5755405943
 H          1.1349358578       -2.1724630387        3.3599238758
 H         -0.7324835754       -2.0741312824        1.7560344428
 C         -0.6652987291       -1.6225930223       -0.8756869408
 H         -1.0884459621       -2.6347760191       -0.9609988823
 C         -0.3101674152       -1.1266526897       -2.2623804872
 C          0.2085258106       -2.0784526526       -3.2980648369
 C         -1.1792876762       -1.5259460517       -3.4156717124
 H         -1.3825526885       -0.7972670194       -4.1859637303
 H         -2.0121014459       -2.1804816580       -3.2038337969
 H          0.3182895699       -3.1146153152       -3.0154786465
 H          0.9571310521       -1.7286675434       -3.9932714944
 H          0.0772649493       -0.1134912882       -2.2546165178
 O         -3.3346543892       -2.5264110110       -0.4279719158
