  62
        -98.94591844
 C         -1.2886474401       -1.4229152128        0.6125266705
 C         -2.3616924762       -1.3114653748       -0.3061719171
 C         -3.3659469017       -0.2797915110        0.0007307270
 C         -3.2210214525        0.4857405655        1.0964559799
 C         -4.1488688134        1.5943997401        1.5009203384
 C         -3.7186074606        2.9444613068        0.9096648920
 C         -3.4087699661        2.8957685241       -0.5863117594
 H         -3.1424949904        3.9089547106       -0.8946283377
 H         -2.5336225044        2.2636358565       -0.7520074248
 C         -4.5668862137        2.3891324778       -1.4568114878
 H         -4.6613457522        3.0403395759       -2.3282413237
 H         -5.5041379879        2.4529262636       -0.9026511350
 C         -4.3859269673        0.9643946107       -1.9830475338
 H         -3.4055259027        0.8690457685       -2.4562340919
 H         -5.1404871301        0.7888449845       -2.7544091716
 C         -4.5296303444       -0.1527840112       -0.9420823640
 H         -5.4609570719       -0.0213237920       -0.3872505949
 H         -4.5824718733       -1.1033341113       -1.4806838803
 H         -4.5147101633        3.6680663345        1.0944859118
 H         -2.8253804604        3.2873918309        1.4371413138
 H         -5.1570847245        1.3494902537        1.1716881718
 H         -4.1417680035        1.6658810928        2.5901155100
 O         -2.1767582782        0.3521411262        1.9547295052
 C         -1.1962104601       -0.6011284600        1.7389318982
 O         -0.3061599058       -0.6203824433        2.6140186976
 H          2.2206214821       -1.2597472259        0.8428154407
 C          1.9916730232       -1.3519122692       -0.2084096646
 C          0.8047271379       -1.9502927849       -0.6095016430
 C          0.5382052638       -2.0611699247       -1.9702908728
 C          1.4447892156       -1.5862496912       -2.9002294441
 C          2.6225254146       -0.9818839014       -2.4970088849
 C          2.8956877541       -0.8602482682       -1.1398987127
 N          4.0847862826       -0.2550530837       -0.6996697565
 S          4.0352539792        0.8240403918        0.5785688340
 O          5.2574402478        1.5876948365        0.4457226054
 O          3.8663892661        0.1154158022        1.8204014948
 C          2.6319419543        1.8672429824        0.2315012773
 C          1.4411891849        1.6854674572        0.9028672556
 C          0.3561042759        2.4779663716        0.5615833753
 C          0.4760573280        3.4298662012       -0.4377083165
 C          1.6828321831        3.6040716219       -1.0990593046
 C          2.7703475489        2.8148879233       -0.7651324248
 H          3.7285588434        2.9285744173       -1.2457891081
 H          1.7754910832        4.3493728383       -1.8724103807
 H         -0.3748931588        4.0394018046       -0.6981743387
 H         -0.5771148029        2.3345911362        1.0835048435
 H          1.3637300817        0.9382207276        1.6774203872
 H          4.6725548232        0.0938764323       -1.4431943194
 H          3.3274505043       -0.6093265422       -3.2244978396
 H          1.2282252524       -1.6808011844       -3.9534534538
 H         -0.3931980691       -2.4989398113       -2.2913057789
 C         -0.1651413604       -2.4353675391        0.4419255267
 H          0.3693147906       -2.4477630849        1.4017855059
 C         -0.6691890655       -3.8368973041        0.1606395305
 C          0.2543682558       -4.9947732743        0.3843168983
 C         -0.9051860087       -4.7710528008        1.3071975208
 H         -1.7450082787       -5.4477800987        1.2562669375
 H         -0.7015374922       -4.4038250309        2.3030546222
 H          1.2454350086       -4.7782265287        0.7549287600
 H          0.2131628421       -5.8276252513       -0.3006189270
 H         -1.3584827302       -3.8937468906       -0.6707966605
 O         -2.5014057009       -2.0307557792       -1.3286762314
