  62
        -98.94011070
 C         -1.1157383719       -1.3916448662        0.3208996843
 C         -1.4676276146       -0.5557769877       -0.7633512740
 C         -2.4632818042        0.4982528201       -0.4891126823
 C         -2.9403691683        0.6595858199        0.7582701040
 C         -3.9084082546        1.6732840182        1.3319774563
 C         -4.8065836748        2.5035982291        0.4180740041
 C         -5.8590682319        1.7029082026       -0.3476698398
 H         -6.5969174062        1.3259328988        0.3650823251
 H         -6.3744799680        2.3826968038       -1.0298464740
 C         -5.3328361514        0.5087409954       -1.1402883135
 H         -4.9172149082       -0.2326100981       -0.4547563169
 H         -6.1840332241        0.0398604408       -1.6414994600
 C         -4.2903900314        0.8383929385       -2.2072960838
 H         -4.1286945753       -0.0670605801       -2.7984792515
 H         -4.6801076178        1.6079700597       -2.8765967250
 C         -2.9200620905        1.2960046009       -1.6766442893
 H         -2.1802667739        1.1289323378       -2.4647533994
 H         -2.9216869682        2.3600927453       -1.4527070716
 H         -4.2078581839        3.0949570299       -0.2685026539
 H         -5.3361070734        3.2104684523        1.0627336251
 H         -4.5349797892        1.1177464399        2.0367209210
 H         -3.3043840294        2.3612652573        1.9338110963
 O         -2.5196203179       -0.1275816272        1.7896084366
 C         -1.6363384278       -1.1711143729        1.5996565107
 O         -1.3926146019       -1.8262928112        2.6314074309
 H          1.0982616560       -0.8667343007       -1.4619721265
 C          1.7570727153       -1.2215572914       -0.6832095618
 C          1.2738838347       -2.1189013438        0.2582185907
 C          2.1323145023       -2.5554765492        1.2598950683
 C          3.4399996749       -2.1041636858        1.3159017162
 C          3.9130296144       -1.1966532894        0.3843403527
 C          3.0586580175       -0.7510470903       -0.6146810555
 N          3.5076740652        0.2359644382       -1.5263445659
 S          3.7413359201        1.7301116927       -0.7984623642
 O          3.6996570801        2.7057602795       -1.8634830656
 O          4.9573672839        1.6824762927       -0.0273668601
 C          2.3396708194        1.9203272049        0.2907398257
 C          1.1539550801        2.3993691073       -0.2279605309
 C          0.0416103822        2.4687272837        0.5947521844
 C          0.1286557048        2.0381529641        1.9093532326
 C          1.3254851309        1.5558974815        2.4148024023
 C          2.4448064289        1.4987367262        1.6010902686
 H          3.3947329355        1.1384586058        1.9599628314
 H          1.3846448941        1.2176436631        3.4368270692
 H         -0.7418167755        2.0716164060        2.5461290935
 H         -0.8906922337        2.8451343167        0.2059935403
 H          1.1207126738        2.7188573781       -1.2574119849
 H          2.8712968150        0.3511214050       -2.3042297672
 H          4.9176772463       -0.8081833177        0.4292106726
 H          4.0950175806       -2.4543637198        2.0990079666
 H          1.7630822368       -3.2401011165        2.0093124114
 C         -0.1640574664       -2.5739443213        0.2063013699
 H         -0.3517670603       -3.1901375112        1.0955679234
 C         -0.4172466192       -3.4227230481       -1.0251063063
 C          0.0281131242       -4.8527234245       -1.0265671307
 C         -1.4324089464       -4.5219994727       -0.9618660760
 H         -2.0453351235       -4.7079911588       -1.8310577995
 H         -1.9485549015       -4.6729151430       -0.0246416390
 H          0.4215570707       -5.2684926099       -1.9414143313
 H          0.5010659338       -5.2314537417       -0.1331290029
 H         -0.3413197919       -2.8703354148       -1.9522331738
 O         -0.9861632693       -0.6538954178       -1.9249484975
