  62
        -98.94667719
 C         -1.1774675040       -1.2717679300        0.0801835498
 C         -1.5704225899       -0.2910114841        1.0240760208
 C         -2.4162773911        0.7944550670        0.5151025084
 C         -2.7102024701        0.8349068797       -0.7973099524
 C         -3.6338699726        1.8293022795       -1.4384024567
 C         -5.0776871416        1.3068149032       -1.4560967246
 C         -5.5636923140        0.7869456002       -0.1030239536
 H         -6.6040308959        0.4789041964       -0.2279510665
 H         -4.9944662510       -0.1070028315        0.1617712737
 C         -5.4662045683        1.8058270994        1.0412331678
 H         -5.3658126541        2.8125778314        0.6342729335
 H         -6.3961037825        1.7798995528        1.6132343962
 C         -4.3283987602        1.5420335470        2.0294548135
 H         -4.3760938681        0.5056790787        2.3733676731
 H         -4.4804823641        2.1827689544        2.9021635794
 C         -2.9127437707        1.8115540741        1.5031612571
 H         -2.8639808616        2.8162789446        1.0796215930
 H         -2.2268996304        1.7632394550        2.3537740214
 H         -5.7319005943        2.1126111116       -1.7940157154
 H         -5.1427763241        0.4908857696       -2.1795527885
 H         -3.5896753794        2.7696533027       -0.8922026498
 H         -3.3077083234        1.9945696476       -2.4666394679
 O         -2.2281724467       -0.0641586768       -1.6897848369
 C         -1.4499977809       -1.1381893809       -1.2817984018
 O         -1.0771708284       -1.8748153690       -2.2129603409
 H          1.2999218564       -0.7221486866        1.6636888181
 C          1.7878932221       -1.2630177401        0.8628005649
 C          1.0740671350       -2.2428592440        0.1817392216
 C          1.7003580729       -2.9216174783       -0.8546467954
 C          3.0081384920       -2.6206705647       -1.1982850502
 C          3.7168578667       -1.6474711968       -0.5168658908
 C          3.0966411874       -0.9642351772        0.5214567158
 N          3.8078203768        0.0480274246        1.2092429815
 S          4.0839952152        1.4413913600        0.3229986279
 O          4.9068885792        1.1113535284       -0.8115110143
 O          4.6290590255        2.4008327691        1.2554588800
 C          2.4711279402        1.9732692977       -0.2239630233
 C          1.9021901240        1.3646931900       -1.3250515510
 C          0.6337325216        1.7546450270       -1.7227856173
 C         -0.0390017568        2.7399647956       -1.0170552131
 C          0.5408357181        3.3322906700        0.0938322862
 C          1.8062422614        2.9424669941        0.4999863555
 H          2.2974571600        3.3817093580        1.3535116097
 H          0.0106758420        4.0938369721        0.6426387919
 H         -1.0208238353        3.0472626839       -1.3389544484
 H          0.1725495833        1.2807396779       -2.5754531921
 H          2.4547331309        0.6076749626       -1.8579035889
 H          3.3699967430        0.3048278855        2.0839070484
 H          4.7287272951       -1.3906088221       -0.7847904515
 H          3.4820822355       -3.1524442012       -2.0094436651
 H          1.1586840503       -3.6729691163       -1.4048457247
 C         -0.3648572950       -2.4573997647        0.5774963297
 H         -0.4188411294       -2.4034992178        1.6739289892
 C         -0.9399362651       -3.7825408778        0.1283177539
 C         -0.5136211705       -5.0385344645        0.8258822806
 C         -1.8991391345       -4.5039894102        1.0251381285
 H         -2.7263461517       -5.0324335648        0.5754272942
 H         -2.1388126208       -4.0471686867        1.9744062098
 H          0.1894115652       -4.9422495177        1.6394942769
 H         -0.3883135223       -5.9368879262        0.2411809147
 H         -1.1275299067       -3.8313199289       -0.9369026968
 O         -1.2353672888       -0.3292698111        2.2393927112
