  62
        -98.93909747
 C         -1.8839732994       -0.2274117137       -0.6601325166
 C         -2.9173617994       -1.1562366960       -0.4008797662
 C         -4.2858850637       -0.6170587846       -0.3220249479
 C         -4.4848670450        0.7037732584       -0.4903291921
 C         -5.7580365786        1.5241523536       -0.5052990038
 C         -7.0678230310        0.9461906534        0.0248625498
 C         -7.0904277802        0.6868306569        1.5307891261
 H         -7.0773692051        1.6488838512        2.0492799095
 H         -8.0310326497        0.1892906182        1.7770459791
 C         -5.9312009675       -0.1447420616        2.0741524477
 H         -4.9928749675        0.3935877540        1.9250324502
 H         -6.0731201875       -0.2504764106        3.1531636611
 C         -5.7994177613       -1.5471536585        1.4833676329
 H         -5.0458079119       -2.0808796602        2.0685995873
 H         -6.7452812756       -2.0815394368        1.5904961686
 C         -5.3659868640       -1.6067840085        0.0080946309
 H         -4.9410222519       -2.5972729648       -0.1786932505
 H         -6.2153698205       -1.4852853792       -0.6597333592
 H         -7.8437412648        1.6849766267       -0.1938328196
 H         -7.3302785853        0.0446657369       -0.5207612951
 H         -5.5247330145        2.4429807765        0.0420793096
 H         -5.9081456836        1.8190008117       -1.5498812073
 O         -3.4527818940        1.5617701308       -0.7444576119
 C         -2.1383565210        1.1319041519       -0.8289778973
 O         -1.3154106822        2.0396463289       -1.0524658157
 O         -2.7078762314       -2.3891359586       -0.2432232445
 C         -0.4533899492       -0.7271464014       -0.7540628676
 C          0.3977730331       -0.0391480756        0.2834144180
 C         -0.0102816621       -0.0866487515        1.6151822886
 C          0.7154611471        0.5510507896        2.6010056314
 C          1.8735798280        1.2399669211        2.2832932340
 C          2.2947105242        1.2874568879        0.9608539095
 C          1.5616199090        0.6441516386       -0.0290580712
 H          1.9049429089        0.7151515786       -1.0468900119
 N          3.4591185493        1.9898057281        0.6104086585
 S          4.5730826492        1.3087703394       -0.4325979337
 O          5.7760068308        2.0869777199       -0.2344121541
 O          4.0531259300        1.2713648075       -1.7749189210
 C          4.8067078728       -0.3440215200        0.1946484062
 C          5.6061879409       -0.5112387650        1.3089013157
 C          5.7448838705       -1.7783012218        1.8508822504
 C          5.0775985798       -2.8503183164        1.2774162831
 C          4.2801564752       -2.6658238569        0.1588173693
 C          4.1404173806       -1.4009123444       -0.3905785610
 H          3.5328175485       -1.2188419776       -1.2613304246
 H          3.7639871949       -3.5009398559       -0.2873981628
 H          5.1813229797       -3.8361969523        1.7024029495
 H          6.3683996791       -1.9263619173        2.7178093439
 H          6.1160090076        0.3460661680        1.7177224925
 H          3.9234995297        2.4378797458        1.3867479613
 H          2.4387781850        1.7471484842        3.0504015377
 H          0.3805728431        0.5116487988        3.6265604841
 H         -0.9163022415       -0.6230554123        1.8624369329
 H         -0.5041473419       -1.7974452543       -0.5045705633
 C          0.0627981760       -0.5825012422       -2.1693191231
 C          1.0810736375       -1.5432877211       -2.7031960484
 C         -0.3338070624       -1.6013255275       -3.1939162750
 H         -0.5497635598       -1.2659278904       -4.1972249863
 H         -0.9562002715       -2.4200326875       -2.8632738291
 H          1.8439910046       -1.1675821048       -3.3693802564
 H          1.4122610128       -2.3327314898       -2.0453044799
 H          0.1151719933        0.4509376354       -2.4944117454
