  62
        -98.93829120
 C         -2.5405510843       -1.3878981117        0.1408859343
 C         -2.5527888005       -0.2970391448       -0.7572691181
 C         -3.6435875265        0.6877177729       -0.5955170379
 C         -4.5548658806        0.4966752751        0.3762362561
 C         -5.7277760426        1.3657309311        0.7459301539
 C         -5.3130285210        2.6257528994        1.5214313479
 C         -4.1018427621        3.3592997881        0.9518793464
 H         -3.2470784252        2.6803200745        0.9290504466
 H         -3.8504499401        4.1705229633        1.6403055541
 C         -4.3029805793        3.9690289570       -0.4335005894
 H         -3.4018785856        4.5418607876       -0.6679759621
 H         -5.1413092077        4.6683805594       -0.3992359792
 C         -4.5422506375        2.9770693839       -1.5741379648
 H         -4.4076884147        3.5230773159       -2.5125356481
 H         -5.5665625083        2.6141752060       -1.5730230048
 C         -3.5690172354        1.8029605794       -1.6106877670
 H         -2.5423047828        2.1856594057       -1.5650908145
 H         -3.6488321572        1.3143854555       -2.5894723056
 H         -5.0710614949        2.3290248743        2.5448293030
 H         -6.1672224566        3.3038382847        1.5594450059
 H         -6.2940564107        1.6275591613       -0.1427951027
 H         -6.3737818736        0.7610959461        1.3862845510
 O         -4.4968961489       -0.5690663114        1.2256007127
 C         -3.5016547551       -1.5197686737        1.1446921256
 O         -3.5782025707       -2.4231772540        2.0013718028
 H          0.5782731602       -1.5639241082       -1.5451299047
 C          0.7788069009       -1.4038576693       -0.4979396552
 C         -0.1427089384       -1.8134283814        0.4514727665
 C          0.1273603232       -1.5640074918        1.7946687767
 C          1.2942353262       -0.9280915152        2.1728514070
 C          2.2128929814       -0.5189321414        1.2208802919
 C          1.9432000388       -0.7452597915       -0.1213097609
 N          2.8631688059       -0.3329939786       -1.0983312206
 S          3.5911368240        1.1704491309       -0.9575269593
 O          2.7515298232        2.1187371724       -0.2626858579
 O          3.9839478095        1.5249137123       -2.3041673080
 C          5.0568214085        0.8330131236       -0.0019673567
 C          5.3513757322        1.6041485288        1.1051826736
 C          6.5033940556        1.3304453853        1.8263018928
 C          7.3369081643        0.2964738700        1.4288223014
 C          7.0286157071       -0.4669929571        0.3126642770
 C          5.8794039880       -0.1976565989       -0.4130095246
 H          5.6058741299       -0.7659263500       -1.2861704928
 H          7.6789551944       -1.2705877349        0.0067855808
 H          8.2318087370        0.0843788611        1.9922803806
 H          6.7444621161        1.9235268368        2.6938688063
 H          4.6707698661        2.3941009294        1.3810600738
 H          2.5473674892       -0.4940956631       -2.0439347785
 H          3.1190777260       -0.0114736559        1.5084777453
 H          1.4920874732       -0.7455670023        3.2182602935
 H         -0.5996503556       -1.8664425918        2.5361153175
 C         -1.4574200327       -2.4532673583        0.0781529560
 H         -1.7126132320       -3.1840274233        0.8572189303
 C         -1.4433271227       -3.1569623459       -1.2625238355
 C         -0.7137886383       -4.4583934379       -1.4007910482
 C         -2.2118242182       -4.4322527724       -1.4255844021
 H         -2.7166173132       -4.6120912487       -2.3630061659
 H         -2.7458968475       -4.8067301718       -0.5644780258
 H         -0.2286336953       -4.8515745143       -0.5203579441
 H         -0.1883553435       -4.6611872425       -2.3214932737
 H         -1.4353100567       -2.4759354665       -2.1045959890
 O         -1.6991316011       -0.1349354646       -1.6703783416
