  62
        -98.94117636
 C         -1.9080037155       -1.5510158177        0.2066033819
 C         -2.5296277312       -0.6522520538        1.1135974003
 C         -3.4558487203        0.3261349001        0.5338540309
 C         -3.6916402146        0.3145516253       -0.7902534999
 C         -4.6514597321        1.2076188250       -1.5291498303
 C         -4.0775314452        2.5818465375       -1.8999800487
 C         -3.8963350257        3.5473755243       -0.7282181848
 H         -3.6960714828        4.5329460315       -1.1532091886
 H         -4.8301239631        3.6176978690       -0.1696480987
 C         -2.7495909960        3.1764995599        0.2226606462
 H         -2.0909091945        2.4580121109       -0.2715467781
 H         -2.1559550662        4.0688077528        0.4354706671
 C         -3.1997051561        2.5959354534        1.5638084814
 H         -3.7525162715        3.3538592739        2.1229422492
 H         -2.3113994596        2.3304790265        2.1428239887
 C         -4.0751247221        1.3413960061        1.4462652580
 H         -4.1603962378        0.8883414121        2.4368545651
 H         -5.0721472538        1.6088821399        1.0965968419
 H         -4.7640187984        3.0381394622       -2.6169638413
 H         -3.1197484241        2.4369673605       -2.4056286489
 H         -5.5566222786        1.3393951241       -0.9353280495
 H         -4.9144083159        0.6845795682       -2.4513121346
 O         -3.0788620753       -0.5604510885       -1.6288061351
 C         -2.1556840805       -1.4939018769       -1.1655445713
 O         -1.6530444530       -2.1810140392       -2.0746320051
 O         -2.3282444961       -0.6793124798        2.3561794777
 C         -0.9688977746       -2.5799073507        0.8122984917
 C          0.4622770393       -2.1063920273        0.8049502509
 C          1.2505022100       -2.1933378407        1.9465208164
 C          2.5670083368       -1.7653949837        1.9292871892
 C          3.1199662625       -1.2328178102        0.7788579021
 C          2.3340171820       -1.1244480864       -0.3618574600
 C          1.0174646338       -1.5625660912       -0.3450192325
 H          0.4170376606       -1.4905791823       -1.2402870314
 N          2.8758153122       -0.5556413920       -1.5264105292
 S          3.7736782725        0.8461265174       -1.3547685867
 O          3.5816723323        1.5789266128       -2.5864269547
 O          5.1379039191        0.5048355513       -1.0358656512
 C          3.0449847591        1.7226167957        0.0198052947
 C          3.8340460496        2.0840426057        1.0928680562
 C          3.2519698007        2.7469660922        2.1614199195
 C          1.8956000390        3.0308583086        2.1407205021
 C          1.1164896494        2.6645593248        1.0538729908
 C          1.6940165126        2.0059029391       -0.0190400962
 H          1.1100505315        1.7105917594       -0.8770162350
 H          0.0602792953        2.8811954164        1.0410946070
 H          1.4385102639        3.5391619461        2.9748994972
 H          3.8553242853        3.0343667508        3.0072235313
 H          4.8826756883        1.8356070019        1.0704150556
 H          2.2187842136       -0.4862096527       -2.2896265865
 H          4.1454094932       -0.9021841620        0.7434767990
 H          3.1693176266       -1.8451647621        2.8209254141
 H          0.8215931806       -2.5906946152        2.8544154906
 H         -1.2828462803       -2.6524199265        1.8656670961
 C         -1.1287741257       -3.9646945863        0.1985768722
 C         -0.1136320690       -4.5965079177       -0.7009836613
 C         -0.2957826806       -5.1097269877        0.6940306641
 H         -0.7684346438       -6.0695590505        0.8367129252
 H          0.4805275945       -4.8865818852        1.4101854515
 H         -0.4777781145       -5.1862920295       -1.5283887027
 H          0.7839145369       -4.0434306003       -0.9292466622
 H         -2.1675869333       -4.1834997494       -0.0289111068
