  62
        -98.93798895
 C         -2.3146376712       -0.7276355153        0.1067156634
 C         -2.4174742686        0.6726330317        0.3202916397
 C         -3.5710275564        1.3426530021       -0.2879967762
 C         -4.4419882479        0.6288486280       -1.0236006428
 C         -5.6528439328        1.1674867541       -1.7360605676
 C         -6.8944537416        1.3014919511       -0.8438277957
 C         -6.8447143520        2.4429841414        0.1724947541
 H         -6.5888270987        3.3718221132       -0.3381580068
 H         -7.8534785486        2.5587948545        0.5737087748
 C         -5.8742217366        2.2102652244        1.3389327908
 H         -6.3664828836        2.4676652207        2.2795265323
 H         -5.6165319194        1.1499995208        1.3929880284
 C         -4.5848704465        3.0282892477        1.2644903627
 H         -4.8202455365        4.0919551922        1.3440479735
 H         -3.9575396418        2.7575387148        2.1177122420
 C         -3.7668952514        2.8033316072       -0.0139735692
 H         -2.7795875628        3.2499189833        0.1268864809
 H         -4.2525891686        3.2870708464       -0.8612420405
 H         -7.7514379858        1.4659709881       -1.5010424017
 H         -7.0529013829        0.3552420028       -0.3215426442
 H         -5.4158778501        2.1349361600       -2.1796365756
 H         -5.8797423159        0.4623346003       -2.5384718505
 O         -4.2997725840       -0.7061400508       -1.2238172067
 C         -3.2512804286       -1.4213820978       -0.6603379942
 O         -3.2885015355       -2.6384153733       -0.9270620845
 O         -1.5815754076        1.3334407980        0.9935397793
 C         -1.1259333123       -1.4281445539        0.7433653132
 C         -0.0238740135       -1.6472420800       -0.2663958141
 C         -0.1545808421       -2.5680708683       -1.3008649188
 C          0.8720874824       -2.7452293244       -2.2096035419
 C          2.0473182944       -2.0238231227       -2.0955726599
 C          2.1860681449       -1.0958082024       -1.0701448129
 C          1.1475036519       -0.9090649213       -0.1682917708
 H          1.2577231556       -0.1828306957        0.6219952824
 N          3.3617203885       -0.3231225229       -0.9637607310
 S          4.2185054555       -0.2797764598        0.4901321892
 O          4.9244185656       -1.5327215363        0.6717498197
 O          3.3495188067        0.1194462612        1.5649310569
 C          5.3778019973        1.0214918947        0.1223449569
 C          4.9146671014        2.3231238158        0.1342748185
 C          5.7935673152        3.3491334242       -0.1732658280
 C          7.1130836960        3.0574192965       -0.4868705649
 C          7.5630640172        1.7460281291       -0.4935185420
 C          6.6885090696        0.7148536970       -0.1875442296
 H          6.9960349461       -0.3183159995       -0.1729621525
 H          8.5898348335        1.5235261336       -0.7353818810
 H          7.7946754875        3.8586105499       -0.7253146244
 H          5.4469999307        4.3700997150       -0.1670932609
 H          3.8829784943        2.5027133239        0.3899375935
 H          4.0193930706       -0.5522130004       -1.6992895389
 H          2.8509403776       -2.1720510705       -2.8018307404
 H          0.7596725647       -3.4600631013       -3.0109732800
 H         -1.0730807581       -3.1258851362       -1.3963904260
 H         -0.7448632505       -0.7206233491        1.4928242712
 C         -1.4843607455       -2.7209655753        1.4492631947
 C         -0.5242197529       -3.2794599804        2.4550471306
 C         -1.8263265796       -2.6906818906        2.9070671662
 H         -2.5957287502       -3.3559039423        3.2693157886
 H         -1.8055339373       -1.7329458615        3.4067557492
 H         -0.3974175738       -4.3499211642        2.5077572591
 H          0.3807890557       -2.7204631147        2.6448805957
 H         -2.0265817227       -3.4202953170        0.8267627421
