  62
        -98.93903538
 C          1.4940251993        0.8211102003       -0.3313897911
 C          2.7961629176        1.3656838584       -0.3074127698
 C          3.9190003868        0.4116776031       -0.4033831793
 C          3.6436041057       -0.9017962573       -0.5104702075
 C          4.6133184104       -2.0512233857       -0.5838989209
 C          5.2341890432       -2.3904192641        0.7811485144
 C          5.6752936967       -1.1835678362        1.6052231544
 H          4.8199091533       -0.5234910363        1.7603774478
 H          5.9857747584       -1.5477016666        2.5882333321
 C          6.8343788856       -0.3821990813        1.0175454526
 H          7.0940999132        0.3931043247        1.7430747341
 H          7.7023513636       -1.0361956161        0.9069387240
 C          6.5644373300        0.2968713897       -0.3266418059
 H          6.6057533726       -0.4197122911       -1.1424743266
 H          7.3759654588        1.0100010805       -0.4994206376
 C          5.2654907067        1.0946726488       -0.3897086158
 H          5.2864915686        1.7222747523       -1.2891611621
 H          5.2370627272        1.7988948518        0.4497788553
 H          6.0854876433       -3.0535515229        0.6185149197
 H          4.4880706332       -2.9351963966        1.3645924248
 H          4.0465819113       -2.9174722769       -0.9318078951
 H          5.3839769395       -1.8426604106       -1.3199784777
 O          2.3671607206       -1.3820181281       -0.5240794151
 C          1.2649759457       -0.5507714325       -0.4351849724
 O          0.1685375179       -1.1373331495       -0.4593552669
 O          3.0222455684        2.6024737527       -0.1999978807
 C          0.2967060044        1.7491432826       -0.2506553742
 C         -0.5978816162        1.3432242753        0.8932438840
 C         -0.0363409948        1.1383272074        2.1515345745
 C         -0.8182952926        0.7440626653        3.2189652106
 C         -2.1768401441        0.5349879888        3.0546473273
 C         -2.7495000831        0.7509285864        1.8078727653
 C         -1.9632266405        1.1651749209        0.7406589733
 H         -2.4386914412        1.3467980327       -0.2075278721
 N         -4.1242874689        0.5676508156        1.6138171955
 S         -4.7327015185        0.0866137933        0.1366451189
 O         -4.7508940764        1.2010871338       -0.7782584977
 O         -6.0278014388       -0.4755935363        0.4588873200
 C         -3.6576535771       -1.1968852433       -0.4760110429
 C         -3.1382348742       -1.0959771064       -1.7493770350
 C         -2.3295607181       -2.1133378972       -2.2269045661
 C         -2.0523575188       -3.2073582281       -1.4246167422
 C         -2.5825007829       -3.2949636704       -0.1477389687
 C         -3.3952067004       -2.2829063439        0.3336442632
 H         -3.8248569919       -2.3274498527        1.3214942750
 H         -2.3577003702       -4.1456304543        0.4756407011
 H         -1.4117542223       -3.9921920614       -1.7944972279
 H         -1.9090034366       -2.0444007451       -3.2178408984
 H         -3.3715545473       -0.2226934902       -2.3385789865
 H         -4.6195103844        0.1494337221        2.3867801000
 H         -2.7879909877        0.2135242649        3.8839865367
 H         -0.3666627501        0.5871222978        4.1870221793
 H          1.0274444552        1.2871011571        2.2781911554
 H          0.7072137864        2.7472766876       -0.0368539950
 C         -0.4183270465        1.7896170221       -1.5849364422
 C         -1.2087740576        2.9987717960       -1.9836222005
 C          0.0913725140        2.6949009117       -2.6641649441
 H          0.0717926142        2.3438033635       -3.6849788274
 H          0.9472189764        3.3114134436       -2.4308802304
 H         -2.1291436018        2.8579259086       -2.5309335865
 H         -1.2373227657        3.8266113045       -1.2911270539
 H         -0.7897607347        0.8147558061       -1.8829805050
