  62
        -98.94366856
 C          1.9522688998        1.2928376201       -0.2262380287
 C          1.8304815198       -0.0370537702        0.2436247706
 C          3.0467289996       -0.6206052405        0.8280046607
 C          4.1679339195        0.1201212596        0.8961769614
 C          5.4879932494       -0.3705859006        1.4147506316
 C          6.3431910098       -0.9650678500        0.2868067516
 C          5.5988115201       -1.9714073195       -0.5908726592
 H          4.8088772503       -1.4511980093       -1.1372580292
 H          6.3101115604       -2.3436411091       -1.3313952392
 C          4.9906982100       -3.1555658700        0.1737493199
 H          5.2098366902       -4.0748357797       -0.3735428905
 H          5.4599438196       -3.2436200305        1.1543641600
 C          3.4717497699       -3.0884702202        0.3428029694
 H          3.1261696098       -4.0634442204        0.6965738688
 H          3.0041637102       -2.9061367197       -0.6279157306
 C          2.9597194195       -2.0337731707        1.3317917299
 H          1.8963791295       -2.2244891609        1.5049461994
 H          3.4839069092       -2.1372897512        2.2840331100
 H          6.6923102500       -0.1486017496       -0.3497322279
 H          7.2166503697       -1.4442450902        0.7328871616
 H          6.0203839392        0.4741121091        1.8554229822
 H          5.3142242692       -1.1187605611        2.1858635611
 O          4.2389043996        1.4018493298        0.4531474722
 C          3.1385268798        2.0176650101       -0.1223158479
 O          3.3375574098        3.1940017403       -0.4887782872
 H         -1.8878239098        1.4166220005       -1.4108237998
 C         -1.7106799301        1.6382973599       -0.3696699597
 C         -0.4299518203        1.9416638198        0.0667709609
 C         -0.2425581107        2.2352157790        1.4148853811
 C         -1.3000113310        2.1988651085        2.3032943608
 C         -2.5747907409        1.8824564787        1.8665141502
 C         -2.7766612304        1.6026197094        0.5224593400
 N         -4.0782949203        1.2940246396        0.0737469194
 S         -4.7986138204       -0.1172614808        0.6156727284
 O         -6.1350692702       -0.1070686506        0.0654084479
 O         -4.6966664608       -0.1742680916        2.0509833784
 C         -3.8617273100       -1.4404026003       -0.1306463721
 C         -2.5520501302       -1.6343744505        0.2609475983
 C         -1.8049223999       -2.6195798801       -0.3648302520
 C         -2.3801483695       -3.3978056896       -1.3574240926
 C         -3.7000626594       -3.1968450394       -1.7335645230
 C         -4.4473254197       -2.2030971098       -1.1225882027
 H         -5.4725378296       -2.0039771397       -1.3901988529
 H         -4.1447257491       -3.8052670090       -2.5048304535
 H         -1.7941424593       -4.1636312193       -1.8412477729
 H         -0.7714196200       -2.7426569402       -0.0840724918
 H         -2.1176432004       -1.0183947409        1.0315106187
 H         -4.1802274899        1.3498040301       -0.9303699606
 H         -3.4070025911        1.8300909682        2.5488888699
 H         -1.1324096214        2.4204640679        3.3467640310
 H          0.7519232291        2.4829213389        1.7615210816
 C          0.7567534000        1.9747671603       -0.8655150287
 H          1.0469098400        3.0254345904       -1.0134434080
 C          0.4768754205        1.3505792311       -2.2181055591
 C         -0.1012177592        2.1718763316       -3.3304571488
 C          1.3334852509        1.7422586617       -3.3830464086
 H          1.6201252011        0.9811053922       -4.0931087389
 H          2.0990176408        2.4840133417       -3.2061810179
 H         -0.7978562889        1.7047292620       -4.0106075193
 H         -0.3095830093        3.2120888015       -3.1298274683
 H          0.1824510205        0.3097004410       -2.1412400398
 O          0.7655100098       -0.7015969402        0.1805213999
