  62
        -98.93434166
 C         -2.2069426800       -1.0524831905        0.6785945702
 C         -2.2635390900       -0.1244983909       -0.3896154401
 C         -3.1749198901        1.0225284191       -0.2078977005
 C         -3.8357652202        1.1714296494        0.9516810694
 C         -4.7785146703        2.2746182395        1.3630420089
 C         -5.8098035503        2.7481644591        0.3290552487
 C         -6.3144567301        1.6625506588       -0.6327630810
 H         -6.0048685801        0.6768471989       -0.2813742707
 H         -7.4058536301        1.6770372287       -0.6414922711
 C         -5.8314739000        1.8667867084       -2.0708413710
 H         -5.9169749500        2.9263551083       -2.3214945014
 H         -6.4929408899        1.3170137682       -2.7446278309
 C         -4.4050024499        1.3992124084       -2.3578723008
 H         -4.3625768898        0.3068227784       -2.3347504604
 H         -4.1472188098        1.7072827781       -3.3739586208
 C         -3.3284340500        1.9281008288       -1.3957310808
 H         -2.3671781900        1.9064371587       -1.9173501307
 H         -3.5356254301        2.9529743089       -1.0967900211
 H         -5.3916920203        3.5692226490       -0.2517988215
 H         -6.6518767403        3.1574997192        0.8897312285
 H         -5.2950669404        1.8909214497        2.2462217290
 H         -4.1790521204        3.1302671196        1.6878452487
 O         -3.6879475003        0.2953032798        1.9864592496
 C         -2.8837203102       -0.8261486502        1.8783036000
 O         -2.8446896702       -1.5271539299        2.9097750802
 H          0.3370276998       -0.5782578701        1.7080966303
 C          0.7736851599       -1.0204808503        0.8197623404
 C          0.0335444901       -1.9499567806        0.0988698406
 C          0.5959807302       -2.5004204009       -1.0445330491
 C          1.8635487402       -2.1218459309       -1.4510790191
 C          2.5982111401       -1.2000360706       -0.7285027993
 C          2.0427987800       -0.6381928303        0.4138462404
 N          2.7852510698        0.2851164899        1.1699556502
 S          3.5903461098        1.5273324697        0.3803069499
 O          3.7556585597        2.5577920501        1.3833975497
 O          2.9188416399        1.9193041693       -0.8368494302
 C          5.1838229899        0.8253551597        0.0059476803
 C          5.6749058800        0.8807136194       -1.2837060997
 C          6.9215707901        0.3357869794       -1.5500810094
 C          7.6514225200       -0.2502287003       -0.5273399091
 C          7.1452929299       -0.2948034999        0.7632802808
 C          5.9004513098        0.2490456201        1.0365092705
 H          5.4726603497        0.2367896004        2.0250208105
 H          7.7156299599       -0.7514416896        1.5560499310
 H          8.6203854101       -0.6748735803       -0.7372900789
 H          7.3163826902        0.3697941591       -2.5528047294
 H          5.0683917501        1.3400397391       -2.0481643399
 H          2.2944889597        0.6360489001        1.9795391301
 H          3.5833783001       -0.9007916007       -1.0466907193
 H          2.2860159003       -2.5508959911       -2.3468873290
 H          0.0319682503       -3.2045777611       -1.6333433890
 C         -1.3415972200       -2.2996675805        0.6135374206
 H         -1.2312717700       -2.6192796702        1.6632986707
 C         -1.9845107598       -3.4642680008       -0.1250833691
 C         -3.4749058298       -3.6160610409       -0.1760031892
 C         -2.7118287197       -3.2915107412       -1.4232118692
 H         -2.6092066196       -4.0616822314       -2.1737762790
 H         -2.7803420697       -2.2947440713       -1.8287085395
 H         -4.0729510699       -2.8387588008        0.2778741405
 H         -3.8934002997       -4.6055298109       -0.0688733389
 H         -1.4148076798       -4.3804589007       -0.0042045288
 O         -1.5922717799       -0.2301262511       -1.4473336600
