  62
        -98.94024126
 C         -2.4469660681       -0.9305226641       -0.0232241180
 C         -2.6390412998        0.4443360293        0.2543666622
 C         -4.0072281145        0.8320507336        0.6211831586
 C         -4.9697608211       -0.1044229644        0.7042634081
 C         -6.4045580562        0.1318914936        1.0914013820
 C         -7.2970801335        0.5917250961       -0.0694862725
 C         -7.0675573793        2.0297384876       -0.5360754307
 H         -7.8972431715        2.2883234294       -1.1969493027
 H         -7.1134611697        2.7007313663        0.3221724405
 C         -5.7492326314        2.2474107310       -1.2918775155
 H         -5.3533908391        1.2835899555       -1.6204397480
 H         -5.9379143241        2.8382639271       -2.1910844240
 C         -4.6711569369        2.9761677910       -0.4893908758
 H         -5.0028025287        3.9932210957       -0.2687660068
 H         -3.7706747837        3.0417592583       -1.1055986773
 C         -4.2922927820        2.2888044855        0.8290444151
 H         -5.0854976987        2.4217010004        1.5643583311
 H         -3.3788783258        2.7532885734        1.2086584589
 H         -8.3341340466        0.5010999025        0.2616795113
 H         -7.1556658331       -0.0912267363       -0.9102694017
 H         -6.7867503323       -0.8214083928        1.4625556336
 H         -6.4501333024        0.8631989640        1.8987479519
 O         -4.7348573530       -1.4214812010        0.4583721112
 C         -3.4797520961       -1.8626481373        0.0723304598
 O         -3.4094768686       -3.0901847688       -0.1424895028
 O         -1.7203722132        1.3030526377        0.2030818668
 C         -1.0774139608       -1.4320479363       -0.4414500162
 C         -0.0490732880       -1.0947978661        0.6110196480
 C         -0.3212859969       -1.4034027648        1.9418831608
 C          0.5989555348       -1.1267243349        2.9336992571
 C          1.8177272092       -0.5509334332        2.6196840243
 C          2.0996980851       -0.2398314932        1.2954293617
 C          1.1692787268       -0.5127945152        0.3015127159
 H          1.4175967039       -0.2614611992       -0.7158051817
 N          3.3166622532        0.3673968765        0.9469676609
 S          4.0272271590       -0.0313210461       -0.5309255498
 O          3.4397392719        0.7756522552       -1.5703700050
 O          3.9853682536       -1.4623569310       -0.7316569634
 C          5.7027218944        0.5023955822       -0.2312365640
 C          6.6575931298       -0.4280222801        0.1330494028
 C          7.9488927239        0.0033174205        0.3934821629
 C          8.2608690514        1.3504579338        0.2889816217
 C          7.2918541951        2.2725841655       -0.0783578324
 C          5.9992690803        1.8480202087       -0.3415561644
 H          5.2158533518        2.5260630077       -0.6379425328
 H          7.5388266371        3.3187368763       -0.1611014383
 H          9.2662439135        1.6837447913        0.4924522947
 H          8.7051769141       -0.7112358037        0.6759045951
 H          6.3706361123       -1.4655232059        0.1939362392
 H          3.9900908380        0.3617261635        1.7006509898
 H          2.5388598835       -0.3370068877        3.3939119759
 H          0.3700807829       -1.3689016845        3.9607993605
 H         -1.2704318610       -1.8620862017        2.1861636413
 H         -1.1560263815       -2.5284392689       -0.4968983045
 C         -0.7264694602       -0.9016805730       -1.8159211550
 C          0.2098531268       -1.6642754552       -2.7026196181
 C         -1.2516392694       -1.6062906218       -3.0289014097
 H         -1.5689835180       -1.0133861643       -3.8735686722
 H         -1.8474424012       -2.4930380253       -2.8670033034
 H          0.9031241019       -1.1087407769       -3.3170164849
 H          0.6131324304       -2.5915812872       -2.3235097242
 H         -0.6835693839        0.1817313482       -1.8455319764
