  62
        -98.94053994
 C         -1.5988669310       -0.6067646509        0.7463002948
 C         -2.9582982342       -0.7516409477        1.1280363489
 C         -3.9477517573       -0.7388295189        0.0430999819
 C         -3.5289844204       -0.5752420371       -1.2245158169
 C         -4.4299238586       -0.4837125759       -2.4211894635
 C         -4.8114117888        0.9732803708       -2.7175640160
 C         -5.3097988305        1.7421481482       -1.4937755937
 H         -4.4871304693        1.8516630831       -0.7830381367
 H         -5.5788017164        2.7464082000       -1.8285737412
 C         -6.5108799051        1.0997872558       -0.7854837886
 H         -6.9965706588        0.3871828219       -1.4530943689
 H         -7.2405157564        1.8798050219       -0.5580094246
 C         -6.1729383457        0.4070606342        0.5360384729
 H         -5.6028888391        1.0894002637        1.1716869058
 H         -7.1104550427        0.1854960142        1.0528651350
 C         -5.3926304742       -0.9084337376        0.4201075598
 H         -5.3924555991       -1.3815021584        1.4064462910
 H         -5.8981605045       -1.5754569529       -0.2811432008
 H         -5.5812621185        0.9784258214       -3.4914163775
 H         -3.9314271870        1.4886784691       -3.1100242831
 H         -3.9004878858       -0.8932660678       -3.2831733681
 H         -5.3254260215       -1.0755549492       -2.2416591376
 O         -2.2226775129       -0.4243113407       -1.5543820264
 C         -1.2236888094       -0.4190783163       -0.5854559916
 O         -0.0821059930       -0.2534189773       -1.0497723260
 H          2.0252170374       -0.2538275947        0.9533022425
 C          1.5748718508        0.6658616586        1.2886701585
 C          0.2708461010        0.6686241003        1.7612328257
 C         -0.2945554303        1.8761453815        2.1631255138
 C          0.4296702479        3.0507271598        2.1095126857
 C          1.7323475807        3.0423234362        1.6435864764
 C          2.3019962965        1.8474535831        1.2230545131
 N          3.6321779849        1.8135915216        0.7555322404
 S          3.8857731210        1.3706011953       -0.8508785130
 O          5.1784339914        1.9453929307       -1.1709473639
 O          2.7899556122        1.7901450760       -1.6919560829
 C          4.0547504060       -0.3989307205       -0.8240518199
 C          5.2100579627       -0.9223700204       -0.2757249211
 C          5.3890151451       -2.2956817051       -0.2769415154
 C          4.4185847439       -3.1158491780       -0.8335841582
 C          3.2656183938       -2.5726195983       -1.3788414860
 C          3.0734839735       -1.1988138665       -1.3729002343
 H          2.1754635125       -0.7420615628       -1.7586448858
 H          2.5084106158       -3.2104147223       -1.8069586237
 H          4.5595338375       -4.1854473470       -0.8424344702
 H          6.2826208056       -2.7222925228        0.1493766126
 H          5.9452570791       -0.2456369548        0.1268177364
 H          4.1338339335        2.6745633287        0.9298462823
 H          2.3051473429        3.9570169469        1.5979617254
 H         -0.0204180398        3.9783692227        2.4299760473
 H         -1.3147311587        1.8797489715        2.5227338596
 C         -0.5654312310       -0.5815491835        1.8594147752
 H         -1.1702168972       -0.5016367880        2.7781568173
 C          0.2625372784       -1.8481574555        2.0076654678
 C         -0.3850404944       -3.1923486133        1.8590121900
 C          0.6371849827       -2.7375202894        0.8632037202
 H          1.6131914047       -3.1998076186        0.8822981169
 H          0.3078759350       -2.4573777316       -0.1240445065
 H         -0.1190929736       -3.9745447637        2.5536658681
 H         -1.4214614256       -3.2105865820        1.5540115018
 H          0.9950406373       -1.7517732444        2.8034985250
 O         -3.3285360348       -0.8837728264        2.3251328307
