  62
        -98.94641205
 C         -1.5605333599       -1.1067941997        0.0241986502
 C         -2.6198430100       -0.8390610696        0.9280932300
 C         -3.3372484403        0.4263920901        0.7278066295
 C         -2.9349443905        1.2619221398       -0.2469241809
 C         -3.5921546208        2.5691111295       -0.5806376314
 C         -4.6796253307        2.3887040688       -1.6490797814
 C         -5.6570120704        1.2518975286       -1.3505707510
 H         -6.3959838904        1.2389298981       -2.1547383010
 H         -5.1216624802        0.3005259388       -1.3916809405
 C         -6.3751027205        1.3701107590        0.0010417290
 H         -7.4346326504        1.1495108487       -0.1451996910
 H         -6.3062171408        2.3943641092        0.3692390086
 C         -5.8647117203        0.4093589796        1.0767301494
 H         -6.5754546903        0.4210479297        1.9073552093
 H         -5.8447860300       -0.6084053206        0.6787595698
 C         -4.4804299704        0.7295461302        1.6548612993
 H         -4.4497416207        1.7719101003        1.9782806489
 H         -4.3313435403        0.0934351606        2.5321988396
 H         -4.1950800406        2.1804444485       -2.6058617913
 H         -5.2289172009        3.3271108786       -1.7443772418
 H         -4.0242102309        2.9933019297        0.3235447484
 H         -2.8319301509        3.2518324295       -0.9637987317
 O         -1.8986953304        0.9843309897       -1.0768999007
 C         -1.1947583601       -0.2082814301       -0.9779223602
 O         -0.2919602400       -0.3308271902       -1.8271540101
 H          1.5336246404       -2.0501737195       -1.2432509993
 C          1.6644814503       -1.8141790090       -0.1995118194
 C          0.6106826203       -1.9793709089        0.6852453106
 C          0.8048875702       -1.6457856583        2.0231810005
 C          2.0221821501       -1.1593924278        2.4615435203
 C          3.0643734800       -0.9695289879        1.5701651703
 C          2.8744352802       -1.2884201085        0.2325844904
 N          3.9068658601       -1.0397124686       -0.6907476996
 S          4.6329100798        0.4664792116       -0.5989809302
 O          5.0506170397        0.7767918411       -1.9488641904
 O          5.6910596897        0.4243633723        0.3813847598
 C          3.3699648694        1.6074062315       -0.0538848908
 C          3.6308282492        2.4304271620        1.0235382589
 C          2.6539721390        3.3176822519        1.4450717485
 C          1.4342644190        3.3645981513        0.7876558484
 C          1.1891255292        2.5337612908       -0.2941459412
 C          2.1635629095        1.6474611309       -0.7239155808
 H          1.9694875597        0.9880208105       -1.5550532806
 H          0.2392637192        2.5527762304       -0.8053860513
 H          0.6694294688        4.0494954913        1.1188052881
 H          2.8437015488        3.9652885923        2.2858146083
 H          4.5888613592        2.3539754424        1.5118065390
 H          3.6467457502       -1.2485304191       -1.6442214696
 H          4.0153190799       -0.5725801076        1.8872120802
 H          2.1593768900       -0.9121786774        3.5030779202
 H         -0.0199641698       -1.7579970882        2.7127230905
 C         -0.7636334795       -2.3876027095        0.2179384407
 H         -1.2636479194       -2.9232219993        1.0355057609
 C         -0.7666401793       -3.2649577900       -1.0153356989
 C         -0.3124642489       -4.6887518098       -0.9020524983
 C         -1.7624479390       -4.3794761903       -1.1188882885
 H         -2.1973894789       -4.5931573308       -2.0838509984
 H         -2.4443380090       -4.5195974801       -0.2929987585
 H         -0.0082750889       -5.0370484993        0.0733467018
 H          0.2497677312       -5.1186123800       -1.7169722581
 H         -0.5329217994       -2.7296117603       -1.9275169191
 O         -2.9469861198       -1.6219936993        1.8588126603
