  62
        -98.94802571
 C         -1.2705997197       -1.0411879195        0.0019960560
 C         -1.6258971300        0.0535444149        0.8249572237
 C         -2.6681645851        0.9438305217        0.2997454218
 C         -3.1666473998        0.7166477249       -0.9292067493
 C         -4.2602414817        1.5186495972       -1.5721010097
 C         -5.6421436233        0.9257845322       -1.2625315871
 C         -5.8705162848        0.6325973628        0.2202387656
 H         -6.8872783847        0.2474797710        0.3225883223
 H         -5.1911957511       -0.1631527040        0.5338762963
 C         -5.6879696192        1.8463654579        1.1420534997
 H         -5.7363975345        2.7660107161        0.5578360373
 H         -6.5137004138        1.8716798541        1.8561795016
 C         -4.3939577542        1.8333813090        1.9577742521
 H         -4.2956716673        0.8742067310        2.4722037559
 H         -4.4665353891        2.6104314347        2.7233407076
 C         -3.1044355684        2.0905897878        1.1674926345
 H         -3.2081000300        3.0024692088        0.5750923712
 H         -2.2957491157        2.2452268612        1.8882422488
 H         -6.4032968228        1.6217406941       -1.6198769821
 H         -5.7486251106       -0.0091804282       -1.8174194582
 H         -4.2045780700        2.5466327901       -1.2184619093
 H         -4.1024225931        1.5089372446       -2.6520800398
 O         -2.7564821228       -0.3091331902       -1.7179606592
 C         -1.8002008425       -1.2127337756       -1.2765723382
 O         -1.5151248812       -2.1018449869       -2.1012943001
 H          0.8285492136        0.1834625329       -0.6098201875
 C          1.4279355903       -0.6853693910       -0.8331607572
 C          1.0218564036       -1.9333759417       -0.3819374983
 C          1.7941170503       -3.0394425773       -0.7148020218
 C          2.9319148385       -2.8896930657       -1.4890105566
 C          3.3405831863       -1.6412605510       -1.9221552322
 C          2.5778074345       -0.5278533397       -1.5890046248
 N          2.9507607121        0.7624348009       -1.9950228468
 S          2.6865204551        2.0501902957       -0.9599321884
 O          1.2927179112        2.4188793245       -0.9565862116
 O          3.6043203171        3.0697684395       -1.4233693803
 C          3.2060177802        1.4569567347        0.6407773436
 C          4.5604341332        1.2483980850        0.8225387514
 C          5.0078607736        0.7375017353        2.0290283437
 C          4.0960486892        0.4382671309        3.0304800386
 C          2.7422058567        0.6588637524        2.8353169134
 C          2.2878850309        1.1735856532        1.6304913857
 H          1.2362596715        1.3450937857        1.4604912796
 H          2.0245973388        0.4292939542        3.6070292064
 H          4.4413204316        0.0335134663        3.9687220624
 H          6.0615551482        0.5709678623        2.1841701096
 H          5.2378857727        1.5041651025        0.0240651211
 H          3.8472416898        0.8242282948       -2.4545100962
 H          4.2320182953       -1.5270841197       -2.5193716324
 H          3.5160689738       -3.7586094926       -1.7510605598
 H          1.5006066575       -4.0192989979       -0.3757841119
 C         -0.2100021298       -2.0106186559        0.4873133192
 H          0.0719143356       -1.6536871451        1.4903067517
 C         -0.7756170255       -3.4102271828        0.6104550829
 C         -0.2672658086       -4.3435097205        1.6673960088
 C         -1.6328621389       -3.7406415345        1.7945644548
 H         -2.4956646538       -4.3725602599        1.6465207905
 H         -1.7835572494       -2.9628468819        2.5291427210
 H          0.5078192471       -3.9803457767        2.3250768589
 H         -0.1940248764       -5.3950294368        1.4340872206
 H         -1.0647648083       -3.8261386529       -0.3479870789
 O         -1.0920431220        0.2760072263        1.9460208487
