  62
        -98.93679129
 C         -2.4967622629       -1.2754169666        0.2111458588
 C         -2.6442592111       -0.4186009887       -0.9059356954
 C         -3.5125927655        0.7534658173       -0.7080405629
 C         -4.1043933370        0.9392831614        0.4858588616
 C         -4.9463442122        2.1240539697        0.8664453392
 C         -4.0417140236        3.3348092857        1.1736105390
 C         -4.1955742257        4.5013923651        0.1974063937
 H         -5.1238615706        5.0307660083        0.4219533193
 H         -3.3698538374        5.1921017481        0.3814069070
 C         -4.2151372372        4.1311027736       -1.2888599483
 H         -5.2053907985        3.7640320522       -1.5623248405
 H         -4.0608573326        5.0562876018       -1.8481009915
 C         -3.1692197356        3.1030815366       -1.7396439887
 H         -2.3136578106        3.1013131620       -1.0636733417
 H         -2.7973043054        3.4052195633       -2.7206317038
 C         -3.7044954604        1.6663894909       -1.8873370708
 H         -4.7635641436        1.6971375330       -2.1573217171
 H         -3.1692321990        1.1773557726       -2.7066208095
 H         -4.2524539989        3.7007487176        2.1797415350
 H         -3.0035479041        2.9949622122        1.1755265551
 H         -5.6382014848        2.3576623416        0.0604253544
 H         -5.5202664261        1.8448443988        1.7502707588
 O         -3.9340351449        0.0933312257        1.5365391048
 C         -3.1232854345       -1.0254836789        1.4303021369
 O         -3.0385506215       -1.7024098410        2.4762199685
 H         -0.2304862727       -0.4581122836        1.1141276364
 C          0.3630705425       -1.0040952156        0.3896314788
 C         -0.1975171430       -2.1027001138       -0.2501751447
 C          0.5830926033       -2.8050271787       -1.1589236660
 C          1.8781220170       -2.3989379496       -1.4317833286
 C          2.4222814346       -1.2904803910       -0.8102411295
 C          1.6561761306       -0.5889341738        0.1116178247
 N          2.1933873544        0.5475841078        0.7419328336
 S          3.6983196923        0.4138959625        1.4755653339
 O          3.9444259580       -0.9329799500        1.9364189507
 O          3.7188780011        1.4520854909        2.4830636234
 C          4.8440142703        0.8381872579        0.1809413637
 C          5.8619754846       -0.0334650958       -0.1526961589
 C          6.7457094386        0.3232517740       -1.1595393910
 C          6.5969269406        1.5385924807       -1.8099395381
 C          5.5706559565        2.4039209461       -1.4607307217
 C          4.6844514271        2.0539239611       -0.4546843788
 H          3.8755375514        2.6976483373       -0.1515475543
 H          5.4576896958        3.3479231206       -1.9691102248
 H          7.2847051770        1.8135997919       -2.5939133327
 H          7.5443165346       -0.3476250332       -1.4324526696
 H          5.9347072689       -0.9700128433        0.3768519148
 H          1.5426149287        1.0142549391        1.3568084905
 H          3.4266420257       -0.9660496064       -1.0278206475
 H          2.4708212494       -2.9514961074       -2.1446238426
 H          0.1760564003       -3.6694634502       -1.6570536101
 C         -1.6095989364       -2.5019723178        0.1077637643
 H         -1.5886663186       -2.9481663557        1.1136638048
 C         -2.2152459420       -3.5023399923       -0.8555531936
 C         -2.0135434589       -4.9725313042       -0.6487868406
 C         -3.3533940975       -4.3556150375       -0.3854071371
 H         -4.1621046321       -4.5608858071       -1.0705177244
 H         -3.6710045337       -4.2349111694        0.6404951484
 H         -1.9056865916       -5.6057952171       -1.5164707242
 H         -1.4243152404       -5.2826321106        0.2011245854
 H         -2.2578599860       -3.1260333758       -1.8710193656
 O         -2.0784464008       -0.6189261424       -2.0114766593
