  62
        -98.94502696
 C         -1.1657656270       -1.8435987095       -0.6588344718
 C         -0.4890623382       -2.3416207899        0.4840980222
 C          0.9388242625       -2.6608124630        0.2921115478
 C          1.5102403898       -2.4782122362       -0.9105266536
 C          2.9555898146       -2.7255074540       -1.2297891686
 C          3.8071176553       -1.4656702724       -1.0246235222
 C          3.6103084240       -0.7935130876        0.3342040154
 H          4.3094492820        0.0445176772        0.3877772540
 H          2.6061988813       -0.3682087943        0.3921138127
 C          3.8218233009       -1.7151987197        1.5426861834
 H          4.3923730691       -2.5973845554        1.2477806211
 H          4.4114897648       -1.1797538071        2.2898247252
 C          2.5251767233       -2.1486913804        2.2303941865
 H          2.7819492215       -2.5763635442        3.2038879874
 H          1.9012876212       -1.2696592270        2.4139309885
 C          1.6881131978       -3.1936155944        1.4804883902
 H          0.9255232534       -3.5636903806        2.1725212113
 H          2.3236211186       -4.0336143507        1.1888838788
 H          4.8568499724       -1.7402046799       -1.1444355218
 H          3.5527599896       -0.7409157891       -1.8013740164
 H          3.0251139255       -3.0316986882       -2.2752141259
 H          3.3261366728       -3.5324699905       -0.6004650900
 O          0.8257639694       -2.0150943608       -1.9879926531
 C         -0.5119467451       -1.6719274150       -1.8823909294
 O         -1.0096160149       -1.2357673269       -2.9396801208
 O         -1.0258906281       -2.5326538510        1.6041629798
 C         -2.6162694759       -1.3825470950       -0.6583843911
 C         -2.6599429942        0.1158283464       -0.4841354575
 C         -3.4526145377        0.9134407499       -1.3005808189
 C         -3.4475494718        2.2895379350       -1.1565722020
 C         -2.6308948397        2.8954078533       -0.2188855364
 C         -1.8301051026        2.1074045529        0.6005434938
 C         -1.8699277044        0.7256992031        0.4807449838
 H         -1.2590681116        0.1231214517        1.1360709958
 N         -0.9731879625        2.6938390012        1.5492312288
 S          0.6304917823        2.2171134306        1.6186387243
 O          0.7269698656        0.8564052507        2.0735333210
 O          1.2649629445        3.2184050772        2.4474543358
 C          1.2302940259        2.3601404098       -0.0541737242
 C          0.9857081052        1.3352554673       -0.9455991302
 C          1.4088099130        1.4678928433       -2.2583221762
 C          2.0739484415        2.6179724747       -2.6543653122
 C          2.3171782015        3.6381925187       -1.7465847583
 C          1.8868093481        3.5139352517       -0.4355213119
 H          2.0581296267        4.2792059429        0.3041613347
 H          2.8376786994        4.5293513672       -2.0583618981
 H          2.4039584305        2.7160023668       -3.6765329318
 H          1.2024392108        0.6706760660       -2.9563552924
 H          0.4690737197        0.4483850243       -0.6131056901
 H         -1.0327040618        3.7016082583        1.5891487272
 H         -2.6080152942        3.9701119359       -0.1213975465
 H         -4.0697707104        2.8983428961       -1.7943881771
 H         -4.0604750638        0.4491443661       -2.0628527497
 H         -2.9957133017       -1.6024004930       -1.6699327129
 C         -3.5083869060       -2.1214718483        0.3263585239
 C         -4.0001019442       -1.5148388499        1.6023589572
 C         -4.9505373210       -1.7314959602        0.4654048866
 H         -5.6901375419       -2.5130356663        0.5505984563
 H         -5.2864906398       -0.8596802700       -0.0754075826
 H         -4.0618381236       -2.1561655110        2.4682323168
 H         -3.7001768810       -0.5047866854        1.8360023145
 H         -3.2863004626       -3.1827523953        0.3556964057
