  62
        -98.94522421
 C         -2.6175532990       -1.1398754548        0.3158353001
 C         -2.6368717228       -0.3709284145       -0.8731608080
 C         -3.3670103950        0.9032093346       -0.7988148170
 C         -3.9561514095        1.2609018046        0.3567324012
 C         -4.6794129125        2.5556557053        0.5867864774
 C         -3.7292276421        3.6330709257        1.1281874710
 C         -2.4301225723        3.7686985152        0.3330008565
 H         -1.8512232552        4.5761527876        0.7872450428
 H         -1.8402439388        2.8550203153        0.4446248219
 C         -2.6279865301        4.0598826232       -1.1611728402
 H         -3.6381089437        4.4327286182       -1.3351806094
 H         -1.9335515730        4.8488021555       -1.4575812833
 C         -2.3622471196        2.8665049747       -2.0810528917
 H         -1.3842680011        2.4346731817       -1.8486338559
 H         -2.3173353486        3.2347553324       -3.1095594497
 C         -3.4103634675        1.7468274764       -2.0414069621
 H         -4.4061763722        2.1704221708       -2.1868576983
 H         -3.1988557291        1.0671039230       -2.8719880737
 H         -4.2556204834        4.5891071690        1.1302983083
 H         -3.4734750040        3.3835467895        2.1606236067
 H         -5.1260699513        2.8870801780       -0.3483591665
 H         -5.4712887505        2.3825272806        1.3173754610
 O         -3.9131250888        0.4965076354        1.4782496256
 C         -3.2310703724       -0.7100715521        1.4914572240
 O         -3.2390606954       -1.2938486192        2.5948823671
 H         -0.3031115458       -0.6317608333        1.4533430100
 C          0.2447638424       -1.2054796627        0.7143520983
 C         -0.4120837979       -2.2203690000        0.0286761623
 C          0.3005621836       -2.9497722966       -0.9129711763
 C          1.6288180094       -2.6535774200       -1.1682767055
 C          2.2751765789       -1.6373123984       -0.4895410594
 C          1.5735731282       -0.9058705137        0.4603725050
 N          2.2247183008        0.1201178753        1.1699767446
 S          3.0342446959        1.2946456835        0.2806246000
 O          3.0637155673        2.4601737187        1.1379082516
 O          2.4469296146        1.4727464138       -1.0268860603
 C          4.6843208198        0.6428106946        0.1319743935
 C          5.3577348759        0.3088871222        1.2907479318
 C          6.6433236364       -0.1990604922        1.1945541866
 C          7.2317155613       -0.3600213775       -0.0512036004
 C          6.5440742053       -0.0154798418       -1.2047629007
 C          5.2568452338        0.4917424355       -1.1156598973
 H          4.6808090308        0.7667938629       -1.9849432360
 H          7.0031146434       -0.1406175739       -2.1722273775
 H          8.2321769615       -0.7563945923       -0.1234458378
 H          7.1810485521       -0.4681613566        2.0893779233
 H          4.8656384834        0.4530865583        2.2380459386
 H          1.6417596879        0.5549052878        1.8709790185
 H          3.3070178371       -1.4004172138       -0.6910789841
 H          2.1685201159       -3.2228118789       -1.9095898220
 H         -0.1865755607       -3.7419312645       -1.4569330487
 C         -1.8679276410       -2.4603408573        0.3498176862
 H         -1.9326125945       -2.8201046150        1.3872767296
 C         -2.5351264356       -3.4705725373       -0.5591368492
 C         -2.4217306963       -4.9358861132       -0.2673999568
 C         -3.7233269290       -4.2266191771       -0.0483180273
 H         -4.5403838121       -4.4219580555       -0.7264038129
 H         -4.0370901858       -4.0289761060        0.9666266243
 H         -2.3481591431       -5.6227834313       -1.0968930390
 H         -1.8533104945       -5.2298133419        0.6019169256
 H         -2.5526946202       -3.1510091354       -1.5945826977
 O         -2.0758097023       -0.7275052294       -1.9414468337
