  62
        -98.93916716
 C         -1.8579965413       -0.8543238305       -0.1997868852
 C         -2.4631113576       -0.2577847797        0.9290193358
 C         -3.5570568110        0.6941387961        0.6682855259
 C         -3.9062166992        0.9648426079       -0.6035520556
 C         -4.9405313412        1.9142680747       -1.1719054608
 C         -6.0218030955        2.5193628578       -0.2802472804
 C         -7.0439519946        1.5173816317        0.2555977666
 H         -7.7013133929        2.0406487382        0.9534775412
 H         -7.6565333275        1.1668594027       -0.5788705708
 C         -6.4616418245        0.2875406052        0.9477069472
 H         -5.8823235235       -0.2972541260        0.2302602973
 H         -7.2964520360       -0.3388870497        1.2734569016
 C         -5.5928327802        0.5753803963        2.1704802444
 H         -6.1483089764        1.1923520636        2.8794363958
 H         -5.3799953677       -0.3813530057        2.6549453709
 C         -4.2441271251        1.2563165582        1.8795733661
 H         -4.3554846003        2.3346995578        1.7933197128
 H         -3.5791031044        1.0628472204        2.7265022171
 H         -6.5619437537        3.2438532037       -0.8958982665
 H         -5.5699868049        3.0764979328        0.5352405199
 H         -4.3722838429        2.7317184997       -1.6299057485
 H         -5.4176950112        1.3740798203       -1.9957824917
 O         -3.2658907504        0.3900007515       -1.6639828026
 C         -2.2407821766       -0.5277995834       -1.4994323649
 O         -1.7675356318       -0.9652185904       -2.5642905847
 H          0.3034396271        0.5667002037        0.3058470812
 C          0.9248705211       -0.0388811529       -0.3424561679
 C          0.5370819362       -1.3441711671       -0.6223878042
 C          1.3524874384       -2.1143460415       -1.4403540791
 C          2.5040211949       -1.5760175927       -1.9899935002
 C          2.8728266193       -0.2699037557       -1.7292982256
 C          2.0755065972        0.5027386597       -0.8932530113
 N          2.4498395952        1.8256479552       -0.6050832657
 S          4.0558534727        2.1299610725       -0.2478595476
 O          4.0394068092        3.3040632632        0.5963453824
 O          4.8119043649        2.2463474413       -1.4699874615
 C          4.6118053501        0.7053505356        0.6715348282
 C          5.6461471996       -0.0683144662        0.1861552185
 C          6.0413009523       -1.1859172018        0.9039523621
 C          5.3954879967       -1.5107943852        2.0864956445
 C          4.3597500732       -0.7214145327        2.5629558236
 C          3.9620996769        0.3981522948        1.8507200788
 H          3.1628742288        1.0337477111        2.1976980975
 H          3.8574824900       -0.9749453196        3.4828174399
 H          5.7001504799       -2.3834055992        2.6423764760
 H          6.8475130676       -1.8002125049        0.5368767686
 H          6.1183281212        0.2189673269       -0.7391230384
 H          1.8315439131        2.2989238631        0.0365943477
 H          3.7546166948        0.1690435960       -2.1669615404
 H          3.1207685546       -2.1821103741       -2.6356207448
 H          1.0814832007       -3.1337616484       -1.6590440386
 C         -0.7361823635       -1.8555497497        0.0057051325
 H         -0.5834295949       -1.9011454723        1.0943853146
 C         -1.1513256230       -3.2263084736       -0.4848880151
 C         -0.5724396812       -4.4593318134        0.1402045403
 C         -1.9991009577       -4.0850097197        0.4036284684
 H         -2.7823324731       -4.6767767650       -0.0459631564
 H         -2.2554647647       -3.6908151729        1.3762856925
 H         -0.3768398300       -5.3137456978       -0.4898853323
 H          0.1409636923       -4.3265297823        0.9391704303
 H         -1.3676161266       -3.2401775070       -1.5472205699
 O         -2.0955665004       -0.4979461440        2.1115620550
