  62
        -98.93582375
 C         -2.3199526841       -0.6654000467        0.8860633454
 C         -3.4914341164       -1.0355084930        0.1783235003
 C         -4.6255889143       -0.1058501606        0.2949883663
 C         -4.5155204770        1.0062434512        1.0418064957
 C         -5.5889703125        2.0370444836        1.2642324578
 C         -5.6837572079        3.0895235150        0.1510204586
 C         -6.2763040013        2.5908099415       -1.1676353879
 H         -7.2285116801        2.0966747412       -0.9724020594
 H         -6.4852093217        3.4718659604       -1.7777034398
 C         -5.3578363448        1.6490896449       -1.9589624087
 H         -4.3343092384        1.7410224267       -1.5875232255
 H         -5.3447248775        1.9506130298       -3.0087795314
 C         -5.7704309897        0.1778086083       -1.9150673244
 H         -5.0329901792       -0.4020085673       -2.4756437228
 H         -6.7389657889        0.0540799703       -2.4044597116
 C         -5.8590908463       -0.4107290929       -0.5010455194
 H         -6.7443169860       -0.0328732660        0.0096623326
 H         -5.9387437521       -1.4971078203       -0.5865715146
 H         -6.3128895662        3.9012450797        0.5236095242
 H         -4.6862838707        3.4977527134       -0.0282995694
 H         -6.5533796112        1.5421920138        1.3822293630
 H         -5.3416680373        2.5453099617        2.1987251258
 O         -3.3776849503        1.3194572421        1.7194636194
 C         -2.2596160016        0.5066043500        1.6446845260
 O         -1.2841332210        0.9229378743        2.3046703161
 O         -3.6085812473       -2.0760109852       -0.5162907376
 C         -1.0467239456       -1.4947264664        0.8753896276
 C         -0.1670754925       -1.1256836271       -0.2922247347
 C         -0.6743379382       -1.0513205516       -1.5859636418
 C          0.1513626422       -0.7119597918       -2.6417291763
 C          1.4916133490       -0.4412972745       -2.4298949482
 C          2.0111007862       -0.5209372281       -1.1426516125
 C          1.1786139210       -0.8598364044       -0.0845227818
 H          1.5869786355       -0.8954346705        0.9142314300
 N          3.3810266356       -0.3025865332       -0.9167516850
 S          3.8863208727        0.4319322345        0.5169548361
 O          3.8031690530       -0.5304821592        1.5862020754
 O          3.1847901545        1.6812455731        0.7112215154
 C          5.5976515651        0.7351192189        0.1186696745
 C          6.4932790714       -0.3132006553        0.2159956246
 C          7.8203566015       -0.0934657690       -0.1166851067
 C          8.2278558950        1.1634557214       -0.5388321842
 C          7.3182407070        2.2062535021       -0.6292006482
 C          5.9888347363        1.9928521835       -0.2993861056
 H          5.2483303662        2.7753302760       -0.3453002285
 H          7.6386200100        3.1830904616       -0.9539135229
 H          9.2615349006        1.3322856933       -0.7961289775
 H          8.5310202055       -0.9008747887       -0.0445331517
 H          6.1324345969       -1.2689169367        0.5583666222
 H          3.8417762318        0.1146361857       -1.7146722250
 H          2.1332403802       -0.1738314531       -3.2557451900
 H         -0.2538968752       -0.6540209869       -3.6407834529
 H         -1.7180076017       -1.2688807916       -1.7535786514
 H         -0.5067114920       -1.2059075061        1.7922830561
 C         -1.3097608145       -2.9931943422        0.9614035889
 C         -1.0373820553       -3.9475067580       -0.1582484022
 C         -0.1535188138       -3.9451559718        1.0501837558
 H         -0.2151938162       -4.7703102339        1.7435037260
 H          0.8378418929       -3.5281593330        0.9473384411
 H         -1.7300265890       -4.7634609340       -0.2958626674
 H         -0.6414990928       -3.5526275509       -1.0802819927
 H         -2.1706523947       -3.2155771875        1.5836184957
