  62
        -98.93811757
 C         -1.9720747206       -1.3751267967        0.3290068836
 C         -2.6523901397       -0.7532050248       -0.7444814016
 C         -3.8288227410        0.0585613469       -0.3851738258
 C         -4.1852260079        0.1737099254        0.9055136520
 C         -5.3651879579        0.9088562740        1.4903401803
 C         -5.6742723494        2.3062950587        0.9348620178
 C         -4.4485076601        3.1109028203        0.4779274701
 H         -4.4835989174        4.1014695116        0.9355411244
 H         -3.5319104304        2.6273921885        0.8208758454
 C         -4.3883369786        3.2979485428       -1.0401731246
 H         -5.3893626430        3.5431376625       -1.4018001329
 H         -3.7424302380        4.1506924964       -1.2634204709
 C         -3.8498090989        2.1048844868       -1.8292444732
 H         -2.7767025729        1.9938123438       -1.6485383503
 H         -3.9717372148        2.3234379307       -2.8928605180
 C         -4.5168392126        0.7535248174       -1.5244290463
 H         -5.5820586560        0.8720323225       -1.3414109351
 H         -4.3811714058        0.1093485970       -2.3973369496
 H         -6.1931401162        2.8519446880        1.7247876096
 H         -6.3715957991        2.2217892318        0.1025944552
 H         -5.1543453808        0.9788783935        2.5602192558
 H         -6.2499571157        0.2757225456        1.3774829543
 O         -3.4867533582       -0.4288280463        1.9100555500
 C         -2.3662331258       -1.2003050794        1.6535986353
 O         -1.8126132420       -1.6607082768        2.6737713710
 O         -2.3046819736       -0.8736810659       -1.9469807353
 C         -0.7458796770       -2.2286370449        0.0584192338
 C          0.3202524338       -1.3915116586       -0.6067136967
 C          1.0009417286       -1.7790379041       -1.7525712271
 C          1.9596405195       -0.9508215821       -2.3121771907
 C          2.2685149790        0.2682517090       -1.7389507825
 C          1.6100340788        0.6546120433       -0.5775178829
 C          0.6511847120       -0.1757872477       -0.0193012253
 H          0.1359103864        0.1281883379        0.8842357409
 N          1.9340427406        1.8802909156        0.0283421357
 S          3.5541586281        2.2757348990        0.1728239211
 O          3.6332132380        3.1282972239        1.3384166364
 O          4.0231564475        2.8552948415       -1.0611918536
 C          4.3931634995        0.7285767314        0.4677243627
 C          5.3616053320        0.2913535043       -0.4127394708
 C          5.9786241312       -0.9273559271       -0.1796603871
 C          5.6148143810       -1.6857754840        0.9219176443
 C          4.6425484504       -1.2310061909        1.7998504849
 C          4.0244550113       -0.0121870198        1.5732722144
 H          3.2676922263        0.3693824042        2.2403826018
 H          4.3598802798       -1.8215018680        2.6567040606
 H          6.0911474020       -2.6368872647        1.0999126980
 H          6.7366257571       -1.2824049724       -0.8589410441
 H          5.6105473356        0.9111626281       -1.2586467479
 H          1.4333613357        2.0614731942        0.8854323816
 H          2.9980307405        0.9318588735       -2.1740665305
 H          2.4705920914       -1.2579416073       -3.2116806677
 H          0.7730956094       -2.7241270765       -2.2165058486
 H         -0.3685593562       -2.5365872926        1.0445966453
 C         -1.1278613675       -3.4666475807       -0.7248511677
 C         -0.3225225999       -4.7226528351       -0.5875007126
 C         -1.6924533105       -4.6412693880        0.0140954467
 H         -2.4938365979       -5.2018480962       -0.4433131816
 H         -1.7786720261       -4.5565763339        1.0879204883
 H         -0.1842656810       -5.3448017613       -1.4587417856
 H          0.5250114202       -4.7026678546        0.0805889553
 H         -1.5559908208       -3.2320959023       -1.6923354541
