  62
        -98.94142484
 C         -2.3233304867       -1.1099817828       -0.5759446961
 C         -3.6093342986       -0.9206205042       -0.0083526571
 C         -4.3030483738        0.3163204029       -0.3800768522
 C         -3.7105333876        1.1865758664       -1.2176832910
 C         -4.2956367378        2.4838269685       -1.7060889889
 C         -4.0949547306        3.6599986058       -0.7406739783
 C         -4.9546549801        3.6172587227        0.5232464771
 H         -4.8759305318        4.5977531864        0.9970254916
 H         -5.9992563052        3.4720028364        0.2461949542
 C         -4.5354483255        2.5448051361        1.5386117890
 H         -3.5198117688        2.2077246886        1.3159302762
 H         -4.5119087828        2.9809244073        2.5399532792
 C         -5.4609022779        1.3291703925        1.5960521903
 H         -6.4468341528        1.6364754459        1.9516117952
 H         -5.0480606255        0.6199137878        2.3179435154
 C         -5.6299178002        0.5987705749        0.2573451979
 H         -6.1176406814       -0.3599636994        0.4493325899
 H         -6.2581836580        1.1837484425       -0.4137730692
 H         -3.0394016189        3.7074079206       -0.4617696229
 H         -4.3355430485        4.5748973677       -1.2870772783
 H         -3.7896607623        2.7191710196       -2.6448241319
 H         -5.3593562634        2.3536388670       -1.9068009179
 O         -2.4789706869        0.9664294234       -1.7473821245
 C         -1.7436425994       -0.1655298535       -1.4232500169
 O         -0.6216699977       -0.2057092928       -1.9649908488
 O         -4.1527658601       -1.7504731666        0.7678008338
 C         -1.5498731001       -2.3570312719       -0.1771583262
 C         -0.4326683421       -1.9242769879        0.7398368662
 C         -0.6967093553       -1.7344064770        2.0934549361
 C          0.2819116381       -1.2522230104        2.9423597710
 C          1.5412608511       -0.9409736786        2.4594019824
 C          1.8101391541       -1.1172527436        1.1091054730
 C          0.8320962282       -1.6202507780        0.2611336071
 H          1.0475922387       -1.7347148214       -0.7894660935
 N          3.0862743882       -0.7937092301        0.6003829556
 S          3.6780618897        0.7344680241        1.0186344026
 O          4.2128486640        0.6616625613        2.3561105830
 O          2.6660155858        1.7452926940        0.8014576784
 C          5.0091871209        0.9159629898       -0.1513447455
 C          6.2639256380        0.4424740423        0.1813178337
 C          7.2900261880        0.5600845222       -0.7426803834
 C          7.0450773500        1.1443146282       -1.9764391832
 C          5.7798739246        1.6141855529       -2.2960628381
 C          4.7486840998        1.4986471441       -1.3771295548
 H          3.7513901129        1.8565367864       -1.5810012667
 H          5.5917052697        2.0690431891       -3.2553711789
 H          7.8449109330        1.2365078194       -2.6940750682
 H          8.2752846259        0.1972915672       -0.4982858926
 H          6.4068897214        0.0038161101        1.1548869271
 H          3.1073552513       -0.8973834814       -0.4063491576
 H          2.3078829448       -0.5433801219        3.1045510569
 H          0.0627716972       -1.1094683723        3.9900860220
 H         -1.6875840723       -1.9516346719        2.4676858203
 H         -2.2563879939       -2.9607823611        0.4078902269
 C         -1.0894962146       -3.1657933205       -1.3710500651
 C         -0.6001371777       -4.5664222806       -1.1590173726
 C         -1.9170285611       -4.3264661033       -1.8321506663
 H         -1.9965913144       -4.5114718218       -2.8928894288
 H         -2.8202915831       -4.5463574841       -1.2823030212
 H          0.2261096727       -4.9204807241       -1.7560843155
 H         -0.6085336133       -4.9474388309       -0.1490753683
 H         -0.6080448780       -2.5702557562       -2.1365639904
