  62
        -98.94348531
 C         -1.3559177553       -0.9042298630       -0.5499988240
 C         -2.4212515533       -1.1900556300        0.3416185419
 C         -3.3628526510       -0.0982075585        0.6159843714
 C         -3.1491952444        1.1049095541        0.0536431779
 C         -4.0405438835        2.3012344940        0.2190788430
 C         -5.1105856786        2.3563576942       -0.8800477219
 C         -5.8587427683        1.0379512952       -1.0776855730
 H         -6.6083264169        1.2026423969       -1.8546594618
 H         -5.1615297297        0.2870183706       -1.4560465566
 C         -6.5423547525        0.5007367790        0.1873636980
 H         -6.6419766728        1.3002989527        0.9223270183
 H         -7.5505722879        0.1713966175       -0.0724823955
 C         -5.8359087632       -0.6935819546        0.8317502742
 H         -5.6481888591       -1.4598163398        0.0754782854
 H         -6.5101629203       -1.1260696554        1.5757241708
 C         -4.5116787449       -0.3841750985        1.5417784277
 H         -4.6535955505        0.4399809200        2.2444605290
 H         -4.2224646057       -1.2730979516        2.1102683590
 H         -5.8205926166        3.1471292030       -0.6308934145
 H         -4.6247932373        2.6200286451       -1.8223563887
 H         -4.5118455768        2.2617897580        1.1994417908
 H         -3.4217942758        3.1988110794        0.1618657208
 O         -2.1089466926        1.3531930637       -0.7774294328
 C         -1.1814954500        0.3659138792       -1.1026620579
 O         -0.2972498181        0.7600739682       -1.8822381969
 H          0.8889352067        0.0354256567        0.3945036966
 C          1.2208718010       -0.9158846525        0.7789986323
 C          0.6669158051       -2.0880832869        0.2848108154
 C          1.0897616731       -3.3024926628        0.8132076448
 C          2.0502208364       -3.3383209404        1.8084708358
 C          2.6002509128       -2.1682111150        2.2989060797
 C          2.1716508934       -0.9465209010        1.7890423934
 N          2.6763645276        0.2507223297        2.3022812421
 S          2.6144151243        1.6977663589        1.4823734932
 O          3.5169765691        2.5489123945        2.2310492952
 O          1.2543062708        2.1652849585        1.3805153219
 C          3.3186498479        1.3824691495       -0.1244248409
 C          2.6441278128        1.7626406493       -1.2649774634
 C          3.2357138185        1.5354810723       -2.4981776411
 C          4.4812011733        0.9331230739       -2.5687582317
 C          5.1469096961        0.5565006280       -1.4115582005
 C          4.5642605078        0.7857882087       -0.1766508713
 H          5.0605662615        0.5180135705        0.7418415562
 H          6.1152199800        0.0861480902       -1.4692991436
 H          4.9347850790        0.7544306459       -3.5308533005
 H          2.7078679187        1.8235868943       -3.3928901981
 H          1.6620184499        2.1995544950       -1.1820789163
 H          3.4491430135        0.1774453109        2.9448862656
 H          3.3408375072       -2.1936853995        3.0831171938
 H          2.3713059645       -4.2868596697        2.2108776952
 H          0.6455128611       -4.2193078935        0.4549995938
 C         -0.3772652883       -2.0370138097       -0.8036017060
 H         -0.9774705759       -2.9577886473       -0.7182245586
 C          0.2382024303       -2.0211830963       -2.1950203107
 C          1.6497499675       -1.6011370037       -2.4590345325
 C          1.2656218846       -3.0429929251       -2.5843111512
 H          1.2073217823       -3.4791336384       -3.5698716880
 H          1.6145295856       -3.7195523295       -1.8196782237
 H          2.2552453607       -1.3002401159       -1.6179107868
 H          1.8418516067       -1.0286148555       -3.3526000926
 H         -0.4905644328       -1.7520374248       -2.9523706576
 O         -2.5778249018       -2.3199796516        0.8804300804
