  62
        -98.93800286
 C         -2.0666484603       -0.3171988130       -0.2386301124
 C         -3.0702216154       -0.8061498650        0.6324504693
 C         -4.2626044028        0.0394045721        0.8025147474
 C         -4.3297073594        1.2185696384        0.1611342466
 C         -5.4215772497        2.2574629067        0.2205474265
 C         -6.8739924445        1.7625892416        0.1769569191
 C         -7.1048032622        0.4967860053       -0.6614582580
 H         -7.9260655268        0.6773803872       -1.3575318798
 H         -6.2171748496        0.2746333527       -1.2562379708
 C         -7.4688677901       -0.7234653944        0.1878558771
 H         -8.1841271182       -0.4156926705        0.9537483206
 H         -7.9680969085       -1.4580732057       -0.4486157835
 C         -6.2916632090       -1.4308220482        0.8580725562
 H         -5.6885654493       -1.9424189863        0.1031848249
 H         -6.6948084123       -2.2002316351        1.5208920643
 C         -5.3507540777       -0.5255934965        1.6697098165
 H         -5.9029157331        0.2569683311        2.1842986290
 H         -4.8489780944       -1.1467545343        2.4166025541
 H         -7.2291507011        1.5855931859        1.1912012898
 H         -7.4732234470        2.5806824808       -0.2263988147
 H         -5.2736572297        2.8539531011        1.1255926587
 H         -5.2331808360        2.9155596074       -0.6311781674
 O         -3.3300962018        1.6609759047       -0.6527060880
 C         -2.1824122594        0.9160213991       -0.8776527143
 O         -1.3714864488        1.4551920684       -1.6547152725
 O         -2.9713071507       -1.9001974040        1.2487178226
 C         -0.8163580168       -1.1572947089       -0.4406520275
 C          0.3485334042       -0.4321371178        0.1851563799
 C          0.4709871026       -0.4322781527        1.5725095901
 C          1.4923974254        0.2614510504        2.1926722501
 C          2.4135590269        0.9726168815        1.4432126118
 C          2.3016648943        0.9764234278        0.0594529897
 C          1.2823036358        0.2664816350       -0.5634091207
 H          1.2005998556        0.2924298293       -1.6382631414
 N          3.2316701445        1.6960500091       -0.7066385795
 S          4.8509964897        1.5900769702       -0.3103426258
 O          5.1407351295        2.4594383383        0.8031228404
 O          5.5613648221        1.8781216422       -1.5364769053
 C          5.1006233282       -0.1100533128        0.1708745044
 C          4.8690209308       -1.0919996904       -0.7721052863
 C          5.0258272337       -2.4196321746       -0.4097025712
 C          5.4066895569       -2.7416269857        0.8842177385
 C          5.6390950707       -1.7443191566        1.8181796009
 C          5.4839422114       -0.4143295863        1.4609449885
 H          5.6545304535        0.3918699528        2.1556440874
 H          5.9367922911       -1.9974303303        2.8229799605
 H          5.5239102890       -3.7764816976        1.1647248009
 H          4.8475297291       -3.1971864013       -1.1350228636
 H          4.5799130121       -0.8072914734       -1.7709330306
 H          3.0782402250        1.6439230484       -1.7021997189
 H          3.2044638431        1.5372987205        1.9094528824
 H          1.5718231567        0.2544370124        3.2690888959
 H         -0.2571270122       -0.9759902762        2.1581675640
 H         -0.9919999830       -2.0775117051        0.1330206475
 C         -0.6112624255       -1.5213912634       -1.8955074944
 C          0.3214217895       -2.6400510924       -2.2490263438
 C         -1.1579499918       -2.8189516650       -2.4073287582
 H         -1.5725011675       -2.8448115368       -3.4041033871
 H         -1.6752102784       -3.4550786263       -1.7041408058
 H          0.9249384772       -2.5482215092       -3.1391293192
 H          0.8083012699       -3.1550823744       -1.4350919866
 H         -0.6622256962       -0.6684766609       -2.5618314990
