  62
        -98.94353423
 C          1.8084862254       -0.5391256334       -0.3389437888
 C          2.9576887786       -0.6205550712       -1.1601172903
 C          4.2408456698       -0.7524338059       -0.4576011330
 C          4.2515868845       -0.8011424737        0.8873436367
 C          5.4905956879       -0.8766128989        1.7309532370
 C          5.9899238232        0.5246341156        2.1102208412
 C          6.0946335218        1.4847151308        0.9252227980
 H          5.0925759437        1.6833416518        0.5380025939
 H          6.4843866234        2.4311123557        1.3063971167
 C          6.9897231123        0.9867198399       -0.2181768624
 H          7.6317707618        1.8080026393       -0.5436131922
 H          7.6412664232        0.1896174656        0.1416255457
 C          6.2294266156        0.4999417524       -1.4532546867
 H          5.5093027489        1.2612369677       -1.7641972915
 H          6.9476650167        0.3782602914       -2.2685169116
 C          5.4851649211       -0.8322118299       -1.2967586141
 H          5.1555604033       -1.1466021154       -2.2914491065
 H          6.1665314304       -1.5903673326       -0.9055068143
 H          5.2970975159        0.9537676835        2.8377031092
 H          6.9664371426        0.4258632082        2.5877681753
 H          5.2526726741       -1.4266810514        2.6428419023
 H          6.2637557511       -1.4138937700        1.1852250292
 O          3.1249204982       -0.7376766331        1.6416449623
 C          1.8765361961       -0.5953168497        1.0533081545
 O          0.9307272101       -0.5356246678        1.8604117753
 O          2.9125277592       -0.5795670608       -2.4197869672
 C          0.4476276953       -0.3888920538       -0.9922057782
 C         -0.2377448063        0.8684427943       -0.5173514182
 C          0.4960627482        2.0484599522       -0.4220589503
 C         -0.0969604300        3.2179082658        0.0102955709
 C         -1.4412692103        3.2424172744        0.3382394863
 C         -2.1875307645        2.0762239043        0.2312659532
 C         -1.5844650267        0.8986832404       -0.1910665165
 H         -2.1818275084        0.0057670539       -0.2672889715
 N         -3.5486815543        2.0642511142        0.5666184598
 S         -4.6336230424        1.1803345292       -0.3476652097
 O         -4.2552315765        1.1466709487       -1.7410228307
 O         -5.9215712305        1.7745329701       -0.0568876718
 C         -4.5939602973       -0.4606659392        0.3413955552
 C         -4.4412771370       -0.6175401283        1.7046018387
 C         -4.4563355589       -1.8973606509        2.2356960905
 C         -4.6321116238       -2.9916719435        1.4023807770
 C         -4.7906570118       -2.8168346280        0.0364373989
 C         -4.7716974735       -1.5395466138       -0.5019348339
 H         -4.8789087392       -1.3585805102       -1.5597160179
 H         -4.9269258512       -3.6690334365       -0.6105475161
 H         -4.6436706251       -3.9863717813        1.8194678182
 H         -4.3289965643       -2.0372520849        3.2971399932
 H         -4.3020262135        0.2527628711        2.3239193370
 H         -3.9296732250        2.9573656465        0.8425455103
 H         -1.9075737421        4.1558062462        0.6752968472
 H          0.4891351884        4.1215267463        0.0871401199
 H          1.5447324412        2.0341147670       -0.6867838326
 H          0.6494101062       -0.2784653055       -2.0688102242
 C         -0.3744884391       -1.6430917558       -0.7795609157
 C         -1.3896933113       -2.0683781884       -1.7965016267
 C         -0.1106112346       -2.8346563725       -1.6488342001
 H         -0.1458173617       -3.8168084132       -1.2023290714
 H          0.6429315600       -2.7299480926       -2.4158205167
 H         -2.3031604679       -2.5255440531       -1.4473946633
 H         -1.5159081073       -1.4452905222       -2.6693854980
 H         -0.5915233907       -1.8238503913        0.2674766831
