  62
        -98.94431481
 C         -1.0404865994       -1.8123984835       -0.7116721876
 C         -2.2347981668       -1.7981555754        0.0551771298
 C         -3.2621270771       -0.8346581629       -0.3479358853
 C         -3.0488208355       -0.0463646401       -1.4163470825
 C         -3.9769230642        1.0185304011       -1.9328454587
 C         -3.8210201749        2.3596434437       -1.2019028876
 C         -4.4077882111        2.3990666447        0.2099137212
 H         -4.4485079166        3.4483976782        0.5091540976
 H         -5.4320720376        2.0239754414        0.1903637640
 C         -3.5901324952        1.6243392995        1.2532662361
 H         -2.5795941274        1.4568065937        0.8705136774
 H         -3.4840404996        2.2329612836        2.1549175733
 C         -4.2029667877        0.2894054559        1.6797257343
 H         -3.5138158533       -0.1935443193        2.3775528050
 H         -5.1435690796        0.4720033977        2.2050364798
 C         -4.4694878825       -0.6874756243        0.5271701788
 H         -4.6925958903       -1.6680498525        0.9552737295
 H         -5.3271597052       -0.3561325975       -0.0578448923
 H         -2.7580728809        2.6121652797       -1.1542725953
 H         -4.3206178450        3.1227505349       -1.8038601869
 H         -3.7291991459        1.1676378190       -2.9860867395
 H         -5.0105561492        0.6784905590       -1.8619677105
 O         -1.9283928637       -0.1410029604       -2.1736275076
 C         -0.8699936254       -0.9754155579       -1.8148658514
 O          0.1100824592       -0.8727752496       -2.5737065578
 O         -2.4228884467       -2.5569760186        1.0445709704
 C          0.0790401162       -2.6747569237       -0.1532474310
 C          0.6663838271       -1.9752337575        1.0502988160
 C          1.0408228452       -2.6702381476        2.1936776959
 C          1.5527181278       -1.9929473591        3.2871039447
 C          1.6891117390       -0.6165534573        3.2679681015
 C          1.3035657042        0.0895945379        2.1327169084
 C          0.8174235078       -0.5966519971        1.0307688602
 H          0.5102994586       -0.0432010203        0.1577416329
 N          1.3740092743        1.4832756806        2.0939917617
 S          1.2837248362        2.3653122945        0.6869565144
 O          1.6622119042        3.7016764866        1.0980214285
 O         -0.0209054530        2.2409465975        0.0864174632
 C          2.5519543397        1.7033688653       -0.3764705734
 C          3.8297342233        1.5877131799        0.1370140636
 C          4.8363136069        1.0912383716       -0.6738497895
 C          4.5515302460        0.7235034931       -1.9806779870
 C          3.2665781770        0.8514147408       -2.4823108210
 C          2.2546513703        1.3464721781       -1.6745324957
 H          1.2408337851        1.4314986324       -2.0323527427
 H          3.0324746320        0.5579165042       -3.4927653808
 H          5.3348123115        0.3332606401       -2.6110978809
 H          5.8370803447        0.9898370457       -0.2860425633
 H          4.0193502060        1.8903406499        1.1538538337
 H          1.8469799514        1.9454385240        2.8534085202
 H          2.0690767544       -0.0880906406        4.1284192374
 H          1.8391196752       -2.5421819358        4.1710375933
 H          0.9046604510       -3.7407505726        2.2335482068
 H         -0.4058876902       -3.5957805826        0.2098383975
 C          1.1375099634       -3.0786799819       -1.1657197202
 C          2.4733016444       -2.4094398626       -1.2515451059
 C          2.3727177391       -3.8088782588       -0.7277474800
 H          2.7340279186       -4.6180103538       -1.3438890671
 H          2.5214010115       -3.9564714785        0.3306513789
 H          2.8868266475       -2.2431433907       -2.2336252762
 H          2.6872875562       -1.6134191115       -0.5543867397
 H          0.6965989917       -3.3892696051       -2.1064111874
