  62
        -98.93755767
 C         -1.9479708184       -0.8594088291        0.4953220586
 C         -2.1425989784       -0.2135670301       -0.7468917905
 C         -2.4833516042        1.2185962528       -0.6902905470
 C         -2.5430398915        1.8305863509        0.5049156293
 C         -2.9159753785        3.2612074513        0.7801609075
 C         -4.4181637879        3.3814667276        1.0892612172
 C         -5.3165070768        3.5527887821       -0.1352759689
 H         -6.3507486888        3.4879453612        0.2101736157
 H         -5.1706782578        4.5528068552       -0.5487237449
 C         -5.1060526647        2.5267875188       -1.2519216909
 H         -4.9905230462        1.5311134007       -0.8200646380
 H         -6.0086923672        2.5109724716       -1.8656880367
 C         -3.9020801757        2.8492874857       -2.1495764275
 H         -3.5753391338        3.8701540929       -1.9523227450
 H         -4.2138188492        2.8198652737       -3.1955537326
 C         -2.7071497499        1.8919288602       -2.0168213003
 H         -2.8183075560        1.0674104970       -2.7281504632
 H         -1.7891157301        2.4210936026       -2.2940558068
 H         -4.7166819661        2.4884343885        1.6444413850
 H         -4.5726060051        4.2405257984        1.7452779057
 H         -2.3505296782        3.5645105436        1.6639703824
 H         -2.6312695989        3.8983624163       -0.0518889929
 O         -2.3149930916        1.1770313644        1.6785271234
 C         -2.0110993208       -0.1709855466        1.7046619887
 O         -1.8268432494       -0.6379737831        2.8492611506
 H          0.5548887287       -0.7324290380        0.4097646176
 C          0.7076297738       -1.6386497080       -0.1593933788
 C         -0.3056712132       -2.5861322285       -0.2249038781
 C         -0.0814727977       -3.7474278528       -0.9539713767
 C          1.1255297222       -3.9441827164       -1.6023600109
 C          2.1291082043       -2.9960920438       -1.5382150517
 C          1.9118295517       -1.8261986849       -0.8169066237
 N          2.8924454424       -0.8218279373       -0.7776052237
 S          2.9068842038        0.3063055270        0.4701612554
 O          2.8682377370       -0.3592130706        1.7542435154
 O          1.8832060031        1.2922040617        0.2236943137
 C          4.5153056530        1.0295804004        0.2068287770
 C          4.6625900398        1.9708085702       -0.7946699007
 C          5.9167028558        2.5137245455       -1.0246594067
 C          6.9970000640        2.1081145425       -0.2548213542
 C          6.8336825145        1.1640957087        0.7477227792
 C          5.5820470802        0.6163791897        0.9822854258
 H          5.4041599470       -0.1138845203        1.7552695304
 H          7.6741837823        0.8532472927        1.3469372600
 H          7.9716807902        2.5329418725       -0.4355050155
 H          6.0466323291        3.2498905282       -1.8014027382
 H          3.7919551675        2.2597705210       -1.3602768168
 H          3.8183949991       -1.1515398956       -1.0113224368
 H          3.0677387549       -3.1498795408       -2.0478250863
 H          1.2872662429       -4.8514084479       -2.1644247025
 H         -0.8526565561       -4.4978300589       -1.0144813169
 C         -1.5866836703       -2.3313154189        0.5344380633
 H         -1.4004298711       -2.5690117923        1.5935458226
 C         -2.7493058595       -3.1705249021        0.0423393519
 C         -3.0074627280       -4.5278823010        0.6220893055
 C         -3.9184312563       -3.3857365847        0.9543390487
 H         -4.9119593145       -3.3745080261        0.5321181641
 H         -3.8585507274       -2.9518474596        1.9424135081
 H         -2.3376942408       -4.8786026836        1.3929081680
 H         -3.3803943475       -5.3041616466       -0.0289410283
 H         -2.9565240023       -3.0115271098       -1.0096252526
 O         -2.0467861875       -0.8052340548       -1.8549321450
