  62
        -98.93765137
 C          1.4984161584        1.1927638643        0.2459076558
 C          2.5736336768        0.6977676486        1.0198681557
 C          3.2172032621       -0.5490232050        0.5658134695
 C          2.7071163606       -1.1832068221       -0.5062053017
 C          3.2114626573       -2.4369996291       -1.1691317762
 C          4.4656731071       -2.1924073189       -2.0257788504
 C          5.5100340261       -1.2746812191       -1.3946399284
 H          6.2782234389       -1.0790199964       -2.1472800299
 H          5.0449396131       -0.3178699234       -1.1501028831
 C          6.2040165195       -1.8328444586       -0.1546589497
 H          6.7193020809       -2.7587884162       -0.4196048961
 H          6.9613772812       -1.1059560261        0.1496945629
 C          5.3012294310       -2.1109685795        1.0483375143
 H          5.9518265152       -2.2921218719        1.9091451254
 H          4.7239034209       -3.0200238373        0.9017300964
 C          4.3801309931       -0.9586329726        1.4378440409
 H          4.9809269786       -0.0532075264        1.5826029996
 H          3.9478176729       -1.1776109732        2.4223984589
 H          4.1462076013       -1.7343145938       -2.9648551871
 H          4.9182198758       -3.1577310560       -2.2580282469
 H          3.3911684482       -3.2036077678       -0.4208070857
 H          2.4071947294       -2.7928274139       -1.8171009255
 O          1.6282127531       -0.7057846268       -1.1847575557
 C          0.9836363073        0.4635354697       -0.8275135458
 O         -0.0009764916        0.7365293168       -1.5391381950
 O          2.9908935617        1.2778384276        2.0609125423
 C          0.8248686866        2.4758292194        0.7039406513
 C         -0.6654427208        2.2569880669        0.7479263325
 C         -1.5913506343        3.0279793702        0.0581828779
 C         -2.9375778126        2.7051145498        0.0872126844
 C         -3.3841662101        1.5955238062        0.7813023821
 C         -2.4658100672        0.8266515347        1.4831153731
 C         -1.1278179355        1.1742302251        1.4874293514
 H         -0.4175359042        0.5564050685        2.0248223771
 N         -2.9154659961       -0.3723689785        2.1131101114
 S         -2.6165313717       -1.6966543645        1.1010324819
 O         -3.1338538249       -2.8508284645        1.8076058666
 O         -1.2160516426       -1.7776519102        0.7396668404
 C         -3.6316678145       -1.3309049002       -0.3092296286
 C         -4.9579128391       -1.7170225593       -0.2738439841
 C         -5.7792555188       -1.3894092400       -1.3399807274
 C         -5.2626380294       -0.6792355096       -2.4137540972
 C         -3.9293404298       -0.2999813224       -2.4318472770
 C         -3.0985577835       -0.6255913887       -1.3700031575
 H         -2.0581504539       -0.3361384065       -1.3560821227
 H         -3.5238034478        0.2550837016       -3.2624264742
 H         -5.9023528387       -0.4188626721       -3.2423114255
 H         -6.8162868067       -1.6838807579       -1.3290897724
 H         -5.3097413578       -2.2678230645        0.5829431353
 H         -2.4408412250       -0.5492820837        2.9897571941
 H         -4.4237750085        1.3112456717        0.7819120924
 H         -3.6432837062        3.3106452030       -0.4598763068
 H         -1.2545347294        3.8655150323       -0.5302589037
 H          1.1824012567        2.6158738502        1.7384662986
 C          1.2386537400        3.7167815018       -0.0717893322
 C          2.5683521429        3.7873364975       -0.7596806805
 C          1.3086860989        3.7373888585       -1.5683442507
 H          0.9973599295        4.6343452612       -2.0833004861
 H          1.0668840626        2.8254056974       -2.0907990742
 H          3.1197517787        4.7145812019       -0.7169034763
 H          3.1930738643        2.9060871993       -0.7311039653
 H          0.9029383517        4.6279920269        0.4135682986
