  62
        -98.94411248
 C          1.8168761670        1.1337045011       -0.0840312832
 C          2.2576723258        0.0077478623       -0.8201460964
 C          3.7154663450       -0.1570926575       -0.9227923128
 C          4.5255175456        0.7476689691       -0.3435984820
 C          6.0239239815        0.6668487005       -0.3209057942
 C          6.5201256318       -0.0826537531        0.9236930629
 C          5.8128915994       -1.4162736250        1.1654630971
 H          6.2643224997       -1.8677656157        2.0515695876
 H          4.7629952145       -1.2268768570        1.4006233209
 C          5.8966863658       -2.4014674782       -0.0087318652
 H          6.7043154571       -2.1094422706       -0.6809613106
 H          6.1415764007       -3.3916603021        0.3812267559
 C          4.6005909286       -2.5463381444       -0.8085836184
 H          3.7686539482       -2.7478110662       -0.1286277014
 H          4.7016339139       -3.4137038931       -1.4665779443
 C          4.2224102913       -1.3473252944       -1.6872738919
 H          5.0700066540       -1.0702445680       -2.3175329138
 H          3.3982786284       -1.6586870049       -2.3361610211
 H          7.5933859821       -0.2517492424        0.8195248882
 H          6.3592601432        0.5530701821        1.7973707997
 H          6.3690634234        0.1644278220       -1.2223765255
 H          6.4233461910        1.6822599715       -0.3059630201
 O          4.0635127126        1.8254660804        0.3403081221
 C          2.7040569344        2.0395520907        0.4976306676
 O          2.4158174444        3.0521084713        1.1668403506
 H         -1.7598438452       -0.2400082903       -0.7441819136
 C         -1.3577825580       -0.5107788482        0.2173343790
 C         -0.3057020376        0.2006930374        0.7704520839
 C          0.1988197924       -0.2016763537        2.0056618113
 C         -0.3235996394       -1.2994784005        2.6595280616
 C         -1.3678601113       -2.0153463894        2.0999583439
 C         -1.8810513902       -1.6203504574        0.8705735658
 N         -2.9291539339       -2.3368470783        0.2836755812
 S         -4.0154643626       -1.6414326490       -0.7639825017
 O         -5.1547872768       -2.5348982128       -0.7338176135
 O         -3.4232943077       -1.4309221972       -2.0611252443
 C         -4.4718735268       -0.0703704279       -0.0487533943
 C         -4.6583776770        1.0073201118       -0.8900097433
 C         -5.0446738289        2.2244676420       -0.3519430167
 C         -5.2367327027        2.3427013779        1.0154228150
 C         -5.0497347947        1.2501622325        1.8481012681
 C         -4.6679347316        0.0298157400        1.3143129562
 H         -4.5205391481       -0.8329702382        1.9427455689
 H         -5.1996777721        1.3449230860        2.9115305510
 H         -5.5333482726        3.2914717106        1.4339676273
 H         -5.1905911301        3.0742285210       -0.9994226655
 H         -4.4912918576        0.8711965886       -1.9465376931
 H         -3.3318826101       -3.0735848622        0.8417181769
 H         -1.7729452570       -2.8799749499        2.6031593479
 H          0.0825350623       -1.6022162462        3.6129269143
 H          1.0174489756        0.3575712402        2.4386690254
 C          0.3298689588        1.3901434825        0.0946631338
 H          0.2510422211        2.2513326229        0.7737832669
 C         -0.3016192588        1.7587607974       -1.2302674082
 C         -1.5371182943        2.6050727460       -1.2625679567
 C         -0.2226570331        3.1812177361       -1.6938415047
 H         -0.0610682070        3.3733143390       -2.7439577460
 H          0.2687787014        3.8873590013       -1.0402934179
 H         -1.9493391463        2.9253251267       -0.3177074944
 H         -2.2780070600        2.3991343468       -2.0196668697
 H         -0.1937535543        0.9823487803       -1.9793874042
 O          1.4797841806       -0.8191543315       -1.3640943769
