  62
        -98.93348133
 C         -2.5589924286       -1.2891040343        0.3665010855
 C         -2.9273818377       -0.1412049333        1.1101995636
 C         -4.1093368027        0.6087388611        0.6531777042
 C         -4.7671715196        0.1895343554       -0.4439299377
 C         -6.0172884853        0.7103714869       -1.1222356816
 C         -6.6016957031        2.0682819243       -0.7437500018
 C         -5.7485488060        3.2668675566       -1.1593045724
 H         -5.7857741034        3.3572349078       -2.2478096131
 H         -6.1941553850        4.1693020564       -0.7354681792
 C         -4.2775830158        3.2021889136       -0.7556001434
 H         -3.8011371797        2.3446757423       -1.2353697914
 H         -3.7842954738        4.0991173770       -1.1402339306
 C         -4.0133776422        3.1381512640        0.7472153757
 H         -4.5006325830        3.9803246371        1.2428127067
 H         -2.9346152823        3.2411462893        0.8966186109
 C         -4.4553372877        1.8391649931        1.4415017343
 H         -5.5163936805        1.8603094664        1.6785054229
 H         -3.9094989631        1.7601998178        2.3864183505
 H         -6.8171102385        2.1011361305        0.3201938140
 H         -7.5602616638        2.1510998231       -1.2630808684
 H         -5.8020140848        0.6991504335       -2.1954555970
 H         -6.7829257487       -0.0551953097       -0.9549047720
 O         -4.3669743784       -0.9138748964       -1.1381445280
 C         -3.2604112064       -1.6705716452       -0.7763346793
 O         -3.0369976479       -2.6233780392       -1.5434942953
 O         -2.2978765754        0.2340791258        2.1373454651
 C         -1.3474953142       -2.0589715805        0.8612715536
 C         -0.0958401547       -1.5070122619        0.2285246070
 C          0.0459063326       -1.4458173610       -1.1549392806
 C          1.1933503161       -0.9170447827       -1.7162741142
 C          2.2156252824       -0.4333069621       -0.9171352248
 C          2.0736556761       -0.4668438814        0.4629866084
 C          0.9244547330       -1.0107713011        1.0250894831
 H          0.8121102390       -1.0254858684        2.1007886653
 N          3.1018187679        0.0190292509        1.2840478059
 S          3.8868868666        1.4443947643        0.8769665510
 O          4.4269586980        1.9392762987        2.1241699466
 O          3.0225139334        2.3431759624        0.1483175878
 C          5.2295045753        0.9024989530       -0.1604614188
 C          5.4288313402        1.4920571375       -1.3933149395
 C          6.4866453092        1.0616302994       -2.1792785184
 C          7.3226410910        0.0554454328       -1.7203253698
 C          7.1110810441       -0.5240733353       -0.4780929311
 C          6.0564864634       -0.0974383097        0.3128796021
 H          5.8608569652       -0.5200230722        1.2841396698
 H          7.7633631859       -1.3063241006       -0.1246674912
 H          8.1437797071       -0.2790109503       -2.3344501128
 H          6.6530500535        1.5119035271       -3.1447213499
 H          4.7503402734        2.2675301248       -1.7121914547
 H          2.8893036725       -0.0105091698        2.2706617850
 H          3.1068483567       -0.0138652887       -1.3540739005
 H          1.2941282627       -0.8790040352       -2.7904675084
 H         -0.7551609759       -1.8128750625       -1.7791942663
 H         -1.2977048430       -1.8314264270        1.9382009871
 C         -1.4864137574       -3.5683477465        0.7243511094
 C         -0.6292711075       -4.4081319377       -0.1699283556
 C         -0.4374540537       -4.4650490559        1.3138434698
 H         -0.7504051679       -5.3493841681        1.8477877041
 H          0.4443554686       -3.9914620142        1.7192512065
 H         -1.0996465084       -5.2421963728       -0.6677406769
 H          0.1282561967       -3.9200560529       -0.7620068685
 H         -2.5168300447       -3.8897523241        0.8347850023
