  62
        -98.93785419
 C         -2.5872852252       -1.1340550329        0.5123413374
 C         -3.4437702744       -0.8515805169       -0.5809128365
 C         -4.6049115576        0.0028723444       -0.2781709486
 C         -4.7889885917        0.4601264253        0.9726144755
 C         -5.8922966358        1.3844165768        1.3974637344
 C         -5.4618744649        2.8534972391        1.2827863518
 C         -4.8274260393        3.2081936069       -0.0620638813
 H         -3.8799506668        2.6733858552       -0.1612879537
 H         -4.5929999299        4.2746527317       -0.0394109348
 C         -5.7106412225        2.9045837552       -1.2803603803
 H         -5.6730592090        3.7575691687       -1.9612311777
 H         -6.7483236877        2.7871977723       -0.9658681714
 C         -5.2825066133        1.6748731584       -2.0832983256
 H         -4.2182102234        1.7453562279       -2.3211696561
 H         -5.8301918861        1.6791475658       -3.0294923881
 C         -5.5377322702        0.3186254883       -1.4137732247
 H         -5.3688778439       -0.4586351835       -2.1648705239
 H         -6.5775201533        0.2595748367       -1.0858949195
 H         -4.7342816596        3.0633519593        2.0702370750
 H         -6.3370896168        3.4834129158        1.4521242949
 H         -6.1405382847        1.1677240314        2.4378771603
 H         -6.7696208046        1.2026013579        0.7797253422
 O         -3.9480094154        0.1646600854        1.9971169196
 C         -2.8326328562       -0.6268106508        1.7913762249
 O         -2.1449121036       -0.8167339094        2.8157628497
 O         -3.2689665600       -1.2773621773       -1.7504348464
 C         -1.3443707039       -2.0010649603        0.3917229784
 C         -0.1539703717       -1.1731054329       -0.0190478790
 C         -0.1856122370       -0.3732675248       -1.1573601623
 C          0.9206770526        0.3737903929       -1.5185418187
 C          2.0744040168        0.3454718274       -0.7541796065
 C          2.1158330377       -0.4460363066        0.3852309457
 C          1.0048728543       -1.2000282661        0.7425630605
 H          1.0373064792       -1.8072955624        1.6376412553
 N          3.2783513102       -0.4654448244        1.1732992210
 S          4.7521020758       -0.7471255697        0.4188377590
 O          4.5845792082       -1.5368270309       -0.7787530127
 O          5.6003290401       -1.3077744255        1.4474977807
 C          5.3422483403        0.8801121869        0.0034217036
 C          5.4896121087        1.7994196999        1.0235770325
 C          5.9562848659        3.0679495202        0.7185608077
 C          6.2688169936        3.3929223134       -0.5932134224
 C          6.1192108302        2.4573771680       -1.6054359409
 C          5.6519248159        1.1867431262       -1.3070796939
 H          5.5163818193        0.4284577676       -2.0619012240
 H          6.3638923383        2.7116444879       -2.6242638680
 H          6.6318127401        4.3811690734       -0.8277002276
 H          6.0745495516        3.7980533122        1.5030186895
 H          5.2402893762        1.5062213585        2.0297915345
 H          3.1929460780       -1.0166179635        2.0150188702
 H          2.9373529957        0.9284315532       -1.0316694552
 H          0.8841896580        0.9881432175       -2.4054836765
 H         -1.0836865194       -0.3511880735       -1.7558714269
 H         -1.1536759641       -2.3664284471        1.4135340724
 C         -1.5536384855       -3.2273838264       -0.4870075563
 C         -0.8925613004       -3.4320576535       -1.8133015021
 C         -0.4530877821       -4.2374379853       -0.6300906413
 H         -0.7021968410       -5.2870476617       -0.5902269294
 H          0.5046548092       -3.9945353791       -0.1928396411
 H         -1.4694830608       -3.9140429965       -2.5876079741
 H         -0.2269401969       -2.6673378800       -2.1808625004
 H         -2.5601706229       -3.6217635434       -0.3909536106
