  62
        -98.94878109
 C         -1.8113013843       -1.3367538232       -0.2468186797
 C         -2.8840425677       -0.6520352371        0.3684734108
 C         -3.2611261277        0.6261321711       -0.2423077522
 C         -2.5989845439        1.0686107895       -1.3272112913
 C         -2.8561395265        2.3604613111       -2.0535388308
 C         -2.1371757900        3.5603749616       -1.4211481264
 C         -2.7537183245        4.0685524057       -0.1171988801
 H         -2.3075618027        5.0435249771        0.0892558904
 H         -3.8256221165        4.2199650843       -0.2532688041
 C         -2.5066730420        3.1528018632        1.0899169502
 H         -1.6758432341        2.4786391105        0.8642980812
 H         -2.1954785503        3.7574028123        1.9460816456
 C         -3.7237058621        2.3371760236        1.5292333286
 H         -4.5033658224        3.0121880888        1.8903884729
 H         -3.4226881583        1.6956707574        2.3620023137
 C         -4.3206045633        1.4428795338        0.4345669885
 H         -5.0248600974        0.7516670073        0.9047979959
 H         -4.8579056288        2.0492369048       -0.2940589998
 H         -1.0945689107        3.2848859555       -1.2402457066
 H         -2.1500545771        4.3748625566       -2.1494496648
 H         -2.4785833506        2.2282822684       -3.0697060299
 H         -3.9280081907        2.5553129678       -2.1008315965
 O         -1.5962672823        0.3645502867       -1.9102872234
 C         -1.1343196012       -0.8134957019       -1.3494752425
 O         -0.1457541734       -1.3051138867       -1.9278441450
 O         -3.4867393621       -1.0824328452        1.3910415090
 C         -1.2764935634       -2.6072666438        0.3939002497
 C          0.1599560232       -2.3581815515        0.7816156855
 C          1.2128622302       -3.2080816520        0.4706069051
 C          2.5191564533       -2.8427879440        0.7515489729
 C          2.8042743011       -1.6143878761        1.3200713357
 C          1.7545495656       -0.7722625798        1.6599795017
 C          0.4488954111       -1.1602700152        1.4248576891
 H         -0.3596372484       -0.4871019947        1.6837816950
 N          2.0476747133        0.5396114615        2.1413259668
 S          1.9201935030        1.6432731646        0.8629971035
 O          2.2582284439        2.9344293913        1.4253193377
 O          0.6233854846        1.5727245843        0.2246419448
 C          3.2060514396        1.0851485201       -0.2263012732
 C          2.9056111522        0.1959464314       -1.2390219829
 C          3.9390478370       -0.2756910454       -2.0345577633
 C          5.2401100790        0.1438972020       -1.8043644643
 C          5.5223577351        1.0389481071       -0.7828141498
 C          4.4967661006        1.5130816441        0.0183270885
 H          4.6627055976        2.2095351358        0.8237055064
 H          6.5351767799        1.3638573832       -0.6070942783
 H          6.0384244949       -0.2300752213       -2.4259031773
 H          3.7144441367       -0.9737692235       -2.8249468126
 H          1.8842255544       -0.1195047189       -1.3939053474
 H          1.4093243947        0.8370924526        2.8685172572
 H          3.8187109906       -1.2963999258        1.4971023725
 H          3.3265956416       -3.5105654596        0.4944298668
 H          1.0113366791       -4.1490563874       -0.0147750952
 H         -1.8737829546       -2.7537060211        1.3061246997
 C         -1.4639229013       -3.8013814860       -0.5161522704
 C         -1.5948529532       -5.1778684384        0.0627976753
 C         -2.7898538326       -4.4988728118       -0.5337245873
 H         -3.1712947755       -4.8560866024       -1.4783418925
 H         -3.5546630037       -4.1253978578        0.1315701545
 H         -1.1580981094       -6.0064521832       -0.4736752679
 H         -1.5520742221       -5.2745545565        1.1370664407
 H         -0.9455677409       -3.6872068778       -1.4614585806
