  62
        -98.94467659
 C         -1.7704189080       -0.3906669522        0.1929812674
 C         -2.8862614452       -0.3376941494        1.0715582093
 C         -4.0096178625        0.5117022296        0.6587602486
 C         -3.9211014158        1.1989288782       -0.4941183123
 C         -5.0059531333        2.0635517480       -1.0659519100
 C         -5.9187242356        1.2618725612       -2.0044782113
 C         -6.4117202387       -0.0565272141       -1.4081375810
 H         -7.0701522300       -0.5208530652       -2.1454433509
 H         -5.5597640292       -0.7263421090       -1.2711856590
 C         -7.1592448002        0.0902182587       -0.0753745872
 H         -7.4823523327        1.1234893837        0.0566610762
 H         -8.0585549962       -0.5284072473       -0.1084777635
 C         -6.3600154686       -0.3510604812        1.1522719539
 H         -5.9554335979       -1.3524523850        0.9852255966
 H         -7.0468710786       -0.4132407824        2.0005596259
 C         -5.2065870493        0.5720886005        1.5652853516
 H         -5.5702488883        1.5978981048        1.6545284232
 H         -4.8549993015        0.2457539444        2.5484109001
 H         -6.7739675335        1.8859102201       -2.2700691713
 H         -5.3643624199        1.0382263752       -2.9188895020
 H         -5.5888548751        2.4908421936       -0.2522419230
 H         -4.5396571909        2.8730507040       -1.6302749871
 O         -2.8331656096        1.1424934841       -1.2998125410
 C         -1.7379142275        0.3486669559       -0.9892801536
 O         -0.8308315455        0.4107529778       -1.8447327660
 H          0.8628605124        0.6695772916       -0.5055334815
 C          1.1863690853        0.4470203415        0.5003706780
 C          0.5163675565       -0.5233469478        1.2318908174
 C          0.9477274074       -0.7931663293        2.5251020777
 C          2.0223920337       -0.1102203133        3.0690632234
 C          2.6864707403        0.8575490410        2.3366033372
 C          2.2556983136        1.1393955489        1.0471893410
 N          2.9344841828        2.1170634127        0.2829687134
 S          4.5050487127        1.6980966388       -0.1309359150
 O          5.3301761667        1.7660575379        1.0484067832
 O          4.8755771348        2.5719887066       -1.2207805654
 C          4.3769141318        0.0109136253       -0.6933554792
 C          3.9730082191       -0.2184119620       -1.9932405931
 C          3.7958614993       -1.5244622249       -2.4194478299
 C          4.0142727825       -2.5718345616       -1.5378859630
 C          4.4108664034       -2.3245434287       -0.2328457243
 C          4.5935959191       -1.0205757130        0.1977863078
 H          4.9051748266       -0.7848816441        1.2019523289
 H          4.5744021926       -3.1418878326        0.4506178457
 H          3.8781295902       -3.5882343002       -1.8733973844
 H          3.4829030328       -1.7192331550       -3.4328622349
 H          3.8165291400        0.6231446699       -2.6494005838
 H          2.4288054032        2.3625559256       -0.5575577002
 H          3.5335285081        1.3915805580        2.7360232024
 H          2.3460444286       -0.3326851351        4.0743677534
 H          0.4285514020       -1.5386553427        3.1093074334
 C         -0.6243489336       -1.2954970693        0.6139168799
 H         -1.0479087756       -1.9443897760        1.3920333248
 C         -0.1023689004       -2.1710805910       -0.5099140541
 C          0.6035264192       -3.4467743080       -0.1668445947
 C         -0.7624124566       -3.4878133468       -0.7821258150
 H         -0.8611535593       -3.8112317690       -1.8073782518
 H         -1.5972134403       -3.7671591476       -0.1556548438
 H          1.4482059648       -3.7413731191       -0.7688982306
 H          0.6954227179       -3.7014667987        0.8778135032
 H          0.2574962832       -1.6084278551       -1.3613826372
 O         -2.9392943247       -0.9815427103        2.1530733903
