  62
        -98.94118178
 C         -1.8939235645       -0.9059609571        0.2493634030
 C         -2.3207490616        0.0739836172        1.1794738612
 C         -2.5720917097        1.4138752978        0.6400500983
 C         -2.3224547254        1.6653154062       -0.6574188946
 C         -2.4912457048        2.9902766588       -1.3508928477
 C         -3.9239731058        3.2711996597       -1.8249629751
 C         -4.9245383931        3.5969738058       -0.7152548282
 H         -4.5232996183        4.3949687787       -0.0899251714
 H         -5.8246122238        3.9815181931       -1.1987709216
 C         -5.3098662994        2.3977398057        0.1621181619
 H         -6.3937135630        2.3763173036        0.2950692825
 H         -5.0308628615        1.4714184310       -0.3455215691
 C         -4.6828778158        2.4049347894        1.5564376737
 H         -5.0554176992        3.2617465412        2.1219113369
 H         -4.9938032228        1.4958887200        2.0776299478
 C         -3.1488704652        2.4490760396        1.5580528439
 H         -2.7988262984        3.4425999632        1.2777306748
 H         -2.7970187529        2.2275197592        2.5688503057
 H         -3.8791980419        4.1235804979       -2.5066457562
 H         -4.2777754033        2.4083102850       -2.3937904164
 H         -2.1591863353        3.7917167151       -0.6899715205
 H         -1.8338264172        2.9666536446       -2.2228612269
 O         -1.8555678313        0.7147511267       -1.5080229856
 C         -1.6285467997       -0.5874922913       -1.0840980597
 O         -1.2094691007       -1.3409479400       -1.9830672417
 O         -2.4798564850       -0.1608024036        2.4086565687
 C         -1.5929207215       -2.2972627020        0.7789141987
 C         -0.2303513444       -2.7275570361        0.2963082059
 C          0.0219221512       -3.9178451775       -0.3713380520
 C          1.2993343434       -4.2088459747       -0.8190354754
 C          2.3399151444       -3.3205069430       -0.6253560081
 C          2.0989319396       -2.1302610157        0.0533916422
 C          0.8282944487       -1.8568217325        0.5268042937
 H          0.6490044085       -0.9265516619        1.0484094076
 N          3.1375560777       -1.2098244657        0.2861787000
 S          2.7587542994        0.4351568103        0.3135352928
 O          2.2486499060        0.7698008119        1.6210231002
 O          1.9232300657        0.7894792147       -0.8120826348
 C          4.3900370131        1.1298480141        0.1178458727
 C          4.8123282408        1.5271989343       -1.1366268429
 C          6.0943439508        2.0335797024       -1.2835282001
 C          6.9289703496        2.1296649966       -0.1801932295
 C          6.4908061413        1.7275747421        1.0729270621
 C          5.2098310067        1.2217087872        1.2268721114
 H          4.8210141751        0.9047957494        2.1804517988
 H          7.1412554276        1.8063998712        1.9289756842
 H          7.9261680400        2.5233330368       -0.2973933185
 H          6.4357093551        2.3500072978       -2.2559434816
 H          4.1243592092        1.4407519804       -1.9627048016
 H          3.9498225773       -1.3883217600       -0.2891829798
 H          3.3286888634       -3.5385917701       -0.9993818059
 H          1.4816169574       -5.1333378858       -1.3457963855
 H         -0.7847159413       -4.6043750607       -0.5689179368
 H         -1.5345740486       -2.1614835525        1.8730087323
 C         -2.6869392462       -3.3238534524        0.5283822726
 C         -4.1077586208       -2.8993212107        0.3103338946
 C         -3.3249893621       -3.5016914266       -0.8155907399
 H         -3.5768124107       -4.5028337864       -1.1337941711
 H         -2.9885959197       -2.8591312738       -1.6137679251
 H         -4.8935335084       -3.4836037324        0.7652108917
 H         -4.3124631426       -1.8387079129        0.2806332372
 H         -2.5430592331       -4.2218111734        1.1215403969
