  62
        -98.93427647
 C         -2.5066080140       -0.6865064475        1.0245861184
 C         -3.5820171394       -1.0619414200        0.1817279040
 C         -4.7848160255       -0.2156250169        0.2660515353
 C         -4.8054279629        0.8333424190        1.1066649235
 C         -5.9398893296        1.8064623084        1.2414163094
 C         -5.7627472523        3.0009608728        0.2936539895
 C         -5.4415666293        2.6038944909       -1.1472764745
 H         -5.3700920676        3.5249791059       -1.7298753738
 H         -4.4575326705        2.1298524687       -1.1761515392
 C         -6.4736916199        1.6692621135       -1.7936171538
 H         -7.4085234861        1.7054742433       -1.2330592642
 H         -6.6867683591        2.0279901693       -2.8028627013
 C         -6.0181169056        0.2148154107       -1.9253606737
 H         -6.7207478064       -0.3030410846       -2.5837558081
 H         -5.0362424100        0.1808802559       -2.4043337774
 C         -5.9441741007       -0.5828786005       -0.6172551437
 H         -6.8872137008       -0.4891657096       -0.0751057046
 H         -5.8000057377       -1.6352979250       -0.8788155878
 H         -4.9449305081        3.6213960003        0.6674749451
 H         -6.6775870219        3.5960390655        0.3135880207
 H         -6.8770253864        1.2959441264        1.0283645644
 H         -5.9601806666        2.1703294828        2.2700692689
 O         -3.7574388973        1.1576761801        1.9067215257
 C         -2.5887642013        0.4185637254        1.8765767969
 O         -1.7037244148        0.8301607963        2.6542866598
 H          1.3103351855       -0.4687837910        1.4249905203
 C          1.0163980732       -0.4335144122        0.3843393537
 C         -0.2431203925       -0.8855130799        0.0200468859
 C         -0.6161576300       -0.8158431716       -1.3186941373
 C          0.2575586160       -0.3079725671       -2.2627144499
 C          1.5115509207        0.1475914183       -1.8947288778
 C          1.8915658522        0.0889365739       -0.5607052706
 N          3.1527504121        0.5778659800       -0.1704744456
 S          4.4871453164        0.0948807171       -1.0893903679
 O          4.5179192986        0.8768165364       -2.2991887553
 O          4.4713010465       -1.3407109563       -1.2645957003
 C          5.8249688488        0.5801380871       -0.0183895431
 C          6.3977995315       -0.3582967773        0.8188078241
 C          7.4202817941        0.0364503979        1.6672225713
 C          7.8473800860        1.3558129371        1.6659744442
 C          7.2621917389        2.2861142641        0.8197278588
 C          6.2402209971        1.8980985031       -0.0318431160
 H          5.7621403484        2.5835031561       -0.7119243807
 H          7.5989289799        3.3102269785        0.8204970712
 H          8.6433546980        1.6602664725        2.3270660928
 H          7.8790972301       -0.6848094136        2.3242202718
 H          6.0406503709       -1.3750208105        0.7796654889
 H          3.3275603658        0.4235511744        0.8136151807
 H          2.2002806482        0.5426747513       -2.6237659601
 H         -0.0410231650       -0.2636004118       -3.2996773423
 H         -1.5940442035       -1.1687926000       -1.6095747602
 C         -1.1819891404       -1.4315799510        1.0654318650
 H         -0.7521486795       -1.1923250937        2.0510369857
 C         -1.3411502204       -2.9447291849        1.0030437113
 C         -0.8925649441       -3.7881188670       -0.1484151372
 C         -0.1343237740       -3.8256105661        1.1420310787
 H         -0.2019876541       -4.7065126660        1.7621871375
 H          0.8319748010       -3.3432001267        1.1619292739
 H         -1.5091879099       -4.6322108798       -0.4168852118
 H         -0.4313136301       -3.3028305602       -0.9940502725
 H         -2.2409092783       -3.2747627978        1.5119587235
 O         -3.5621193310       -2.0431670595       -0.6039795341
