  62
        -98.94412106
 C         -2.1911479110       -0.7734231123       -0.0148079428
 C         -2.8933052208       -0.0600162524        0.9848142863
 C         -3.7028884822        1.0731924383        0.5177889693
 C         -3.7023247808        1.3854993631       -0.7914003786
 C         -4.5234633294        2.4780747116       -1.4113807591
 C         -5.8873527081        1.9498571009       -1.8779772662
 C         -6.6273560813        1.1310278118       -0.8202176181
 H         -7.5875691207        0.8370863117       -1.2494761057
 H         -6.0685105418        0.2130367514       -0.6244270571
 C         -6.8644876361        1.8706380355        0.5039155938
 H         -6.7484990383        2.9447567699        0.3547566542
 H         -7.8943894612        1.6970649533        0.8227550143
 C         -5.9615620721        1.4190790771        1.6533392935
 H         -6.0045939072        0.3310162558        1.7474838096
 H         -6.3538111961        1.8432257304        2.5815642604
 C         -4.4888551621        1.8350109339        1.5477254069
 H         -4.4219919731        2.9100887941        1.3676202578
 H         -4.0126111517        1.6182111313        2.5087851276
 H         -5.7315077546        1.3162900293       -2.7540924287
 H         -6.5020612203        2.8003062010       -2.1783083009
 H         -3.9807125607        2.8690959939       -2.2736029204
 H         -4.6607578672        3.2785570943       -0.6869327709
 O         -2.9799513617        0.7035314508       -1.7163187544
 C         -2.2137046286       -0.3966616897       -1.3579802217
 O         -1.6105566155       -0.9336651409       -2.3048422125
 O         -2.8403556240       -0.3535948780        2.2109369007
 C         -1.3559167562       -1.9740858250        0.3873108354
 C          0.0955680556       -1.7628447528        0.0310978279
 C          0.8961295067       -2.7571136916       -0.5156684070
 C          2.2289459273       -2.5096855829       -0.7964840664
 C          2.7923321705       -1.2738690712       -0.5394079576
 C          2.0042943674       -0.2748242960        0.0173829904
 C          0.6722229634       -0.5282540163        0.3040328065
 H          0.0620995737        0.2519998607        0.7441614131
 N          2.5670071918        0.9898923590        0.2743991332
 S          3.9400321701        1.0426189571        1.2434300078
 O          3.9655978785       -0.0565467764        2.1809941672
 O          3.9512910469        2.3729029734        1.8122661719
 C          5.2874521307        0.8917120938        0.0900566635
 C          6.2095696068       -0.1256331705        0.2393889682
 C          7.2554406256       -0.2196182163       -0.6656084160
 C          7.3599598204        0.7005485861       -1.6974770143
 C          6.4268841300        1.7180721788       -1.8316696154
 C          5.3797036195        1.8186189637       -0.9296945438
 H          4.6358278728        2.5950238213       -0.9965559013
 H          6.5115241927        2.4319235108       -2.6351915536
 H          8.1733222905        0.6245963492       -2.4017282833
 H          7.9819336074       -1.0095764545       -0.5629026012
 H          6.0833981227       -0.8210592451        1.0537303107
 H          1.8925282441        1.6708582449        0.5930687339
 H          3.8271887378       -1.0752073979       -0.7652801770
 H          2.8367736183       -3.2908154409       -1.2267042763
 H          0.4756833889       -3.7268041405       -0.7253776146
 H         -1.4276752842       -2.0253545398        1.4848878417
 C         -1.9450277160       -3.2415017180       -0.1970779287
 C         -1.8112070218       -4.5459348684        0.5287226336
 C         -3.1390750982       -3.8544593716        0.4694013635
 H         -3.9165033701       -4.2765110359       -0.1495902451
 H         -3.5070877415       -3.3737981302        1.3644718893
 H         -1.6793217511       -5.4472356668       -0.0507244105
 H         -1.2809828586       -4.5432782058        1.4691813133
 H         -1.9171839876       -3.2499733199       -1.2809423071
