  62
        -98.94518560
 C          2.4519608841        1.1807245259       -0.0673794967
 C          3.5593728231        0.8634791657        0.7590899705
 C          4.4929773564       -0.1348400172        0.2284601891
 C          4.2637696694       -0.6877374959       -0.9765297282
 C          5.1347723213       -1.7042920129       -1.6636483227
 C          4.8745386006       -3.1511985351       -1.2225249852
 C          5.3752100743       -3.5045001856        0.1785670506
 H          5.3263968577       -4.5912920946        0.2708284356
 H          6.4227613637       -3.2164588505        0.2718986573
 C          4.5621113661       -2.8756838316        1.3187602916
 H          3.5976365207       -2.5351871192        0.9339550330
 H          4.3527064750       -3.6333144021        2.0772740173
 C          5.2552452482       -1.7090479980        2.0226548718
 H          4.5764316659       -1.3168133027        2.7840113220
 H          6.1555438003       -2.0677894966        2.5262771928
 C          5.6441604880       -0.5520146424        1.0932477021
 H          5.9228284604        0.3050285266        1.7111165681
 H          6.4988496427       -0.8337390655        0.4788178103
 H          3.8017078862       -3.3484247831       -1.2873132270
 H          5.3759236949       -3.8049922919       -1.9399686338
 H          4.9193602393       -1.6264462064       -2.7315227634
 H          6.1842032703       -1.4564559377       -1.5016292630
 O          3.1896166552       -0.3562589812       -1.7408268711
 C          2.2503617348        0.5679545692       -1.3040252095
 O          1.3151030043        0.7549247180       -2.1070990720
 O          3.7598397030        1.3950960797        1.8829466247
 C          1.4443364611        2.1963693930        0.4461483409
 C          0.1470714267        1.4773156333        0.7194759516
 C          0.0220490316        0.7266943827        1.8858495612
 C         -1.1274231963        0.0032164491        2.1394839692
 C         -2.1735698520        0.0040993950        1.2323745723
 C         -2.0503546133        0.7330433048        0.0580500389
 C         -0.9028211207        1.4777294736       -0.1844569473
 H         -0.8177471188        2.0306532312       -1.1063651341
 N         -3.1005432368        0.7362390821       -0.8748996016
 S         -3.8455600773       -0.7170626394       -1.2585244264
 O         -2.9538576535       -1.8429136653       -1.1017084102
 O         -4.4051695111       -0.5167148400       -2.5777315770
 C         -5.1790966736       -0.8230072702       -0.0809635967
 C         -6.0301722749        0.2583619121        0.0385002618
 C         -7.0792715664        0.1880589853        0.9409373075
 C         -7.2615289898       -0.9569733690        1.7021437488
 C         -6.4010634715       -2.0356236816        1.5679807963
 C         -5.3487074366       -1.9710683597        0.6677022067
 H         -4.6510785478       -2.7827149835        0.5340198799
 H         -6.5439679450       -2.9253473456        2.1600188300
 H         -8.0785334562       -1.0089817793        2.4043429830
 H         -7.7500884303        1.0251883620        1.0482495464
 H         -5.8556955216        1.1280759296       -0.5724938740
 H         -2.8902051084        1.2598720602       -1.7125806258
 H         -3.0681560418       -0.5676591009        1.4174574805
 H         -1.2116690321       -0.5703509266        3.0500709710
 H          0.8467154070        0.7098050370        2.5849442740
 H          1.8503161125        2.5458869218        1.4050894913
 C          1.3096251108        3.3814931219       -0.4862113093
 C          0.6483194861        4.6325341766        0.0074934635
 C          2.1276124759        4.6101113788       -0.2297621058
 H          2.5237767596        5.1497282678       -1.0769512558
 H          2.7841153298        4.6024575097        0.6278140524
 H          0.0265490836        5.1917207531       -0.6748351266
 H          0.2986241750        4.6388231729        1.0286203127
 H          1.1569701633        3.0988142061       -1.5210061866
