  62
        -98.93967492
 C         -1.4706381786       -1.5867950313       -0.0212274300
 C         -1.4297301794       -0.1757500513        0.0469569802
 C         -2.6958825598        0.5095562980        0.3798481703
 C         -3.7922570494       -0.2337768327        0.6181695102
 C         -5.1862039597        0.2392699164        0.9353239703
 C         -5.9277952300        0.7722809161       -0.3013371996
 C         -5.1001134406        1.6817735367       -1.2057223596
 H         -5.6987093708        1.8979635164       -2.0947042195
 H         -4.2110479803        1.1426793172       -1.5377527496
 C         -4.6859520114        3.0142147068       -0.5858179495
 H         -5.5817935417        3.5641350363       -0.2887268394
 H         -4.1858483517        3.5926342672       -1.3667443194
 C         -3.7454756513        2.9277488273        0.6181753205
 H         -4.2865623311        2.6497598569        1.5185068305
 H         -3.3491276119        3.9320616575        0.7928954906
 C         -2.5426599307        2.0107342181        0.4205293404
 H         -1.8149075208        2.2071749784        1.2167249904
 H         -2.0305715809        2.2836588884       -0.5086952396
 H         -6.8208109403        1.3025475655        0.0340309105
 H         -6.2494168695       -0.0854264141       -0.8972970097
 H         -5.1561540601        0.9877912964        1.7215774604
 H         -5.7309467591       -0.6255230439        1.3205808103
 O         -3.7764508986       -1.5976366127        0.5601739201
 C         -2.6338480382       -2.3060650520        0.2446762800
 O         -2.7750687374       -3.5464073521        0.2401170799
 O         -0.3876350898        0.4951466594       -0.1656595398
 C         -0.2113470681       -2.3596802805       -0.3714692301
 C          0.8698642517       -2.0101648699        0.6207574199
 C          0.6488334719       -2.2892999902        1.9677541699
 C          1.5925409517       -1.9623670797        2.9212938699
 C          2.7716692113       -1.3369048189        2.5537522599
 C          3.0022111511       -1.0570271687        1.2127522599
 C          2.0595136213       -1.4035707392        0.2536708099
 H          2.2713235611       -1.1824033890       -0.7781170701
 N          4.1937384407       -0.4384952879        0.8094342799
 S          4.2192832201        0.6397631722       -0.4639731500
 O          4.1156892004       -0.0653425678       -1.7174719800
 O          5.4512647796        1.3774911729       -0.2673463100
 C          2.8391275494        1.7492199913       -0.2547517998
 C          2.6178323791        2.3112375311        0.9859481202
 C          1.5847487386        3.2209298205        1.1332902503
 C          0.8011313983        3.5596321301        0.0420816704
 C          1.0376844886        2.9880979003       -1.1965140997
 C          2.0644187492        2.0716885709       -1.3480211098
 H          2.2731109594        1.5937827411       -2.2921849198
 H          0.4205556484        3.2444821200       -2.0431483596
 H         -0.0044610621        4.2675892096        0.1598142705
 H          1.3910828783        3.6603710703        2.0991380504
 H          3.2455609493        2.0365256614        1.8184245202
 H          4.8005266206       -0.1436814976        1.5599298899
 H          3.5077389212       -1.0717608386        3.2973934599
 H          1.4073957819       -2.1871985099        3.9608999699
 H         -0.2804591578       -2.7637523407        2.2540485799
 H         -0.4609411775       -3.4236785406       -0.2517690101
 C          0.1798821816       -2.1082104001       -1.8119438601
 C          1.0371988822       -3.0991048696       -2.5381808902
 C         -0.4124687379       -2.9595198904       -2.8923870001
 H         -0.6726718282       -2.4947539605       -3.8316227101
 H         -1.0916262274       -3.7439624908       -2.5909027301
 H          1.7786554920       -2.7289556591       -3.2303694302
 H          1.3444286828       -3.9823154394       -1.9985726702
 H          0.3238030110       -1.0560227500       -2.0302000500
