  62
        -98.93204705
 C         -2.1608897897       -1.1545326793        0.0755326208
 C         -3.0769637395       -0.5395567294        0.9621133311
 C         -3.9751010495        0.4843713208        0.3966431114
 C         -3.8321952598        0.8316781910       -0.8947848085
 C         -4.6200924499        1.8352721612       -1.6982554682
 C         -4.9221018595        3.1800437911       -1.0190642479
 C         -6.3953928794        3.3571596112       -0.6473775376
 H         -6.6140415093        4.4255633912       -0.5857759874
 H         -7.0086080097        2.9451766614       -1.4515012875
 C         -6.8113206392        2.7242638711        0.6794006325
 H         -7.8984547591        2.8010436112        0.7557796027
 H         -6.3867946989        3.3012510109        1.5039563924
 C         -6.4098187893        1.2588827010        0.8596282122
 H         -6.5561947996        0.7059743412       -0.0676063079
 H         -7.0785922092        0.8182601010        1.6020924423
 C         -4.9695929192        1.0725052508        1.3602919818
 H         -4.5785373290        2.0232581407        1.7347712718
 H         -4.9628342490        0.3899335207        2.2159873417
 H         -4.2919799993        3.3015960209       -0.1391691981
 H         -4.6544893896        3.9732735712       -1.7190286079
 H         -4.0281542501        2.0003902212       -2.6013630483
 H         -5.5528604800        1.3649683713       -2.0194118880
 O         -2.8935545900        0.2563911410       -1.6982127989
 C         -2.0394930000       -0.7408647192       -1.2513536192
 O         -1.2427572803       -1.1462038291       -2.1159663295
 O         -3.1437511392       -0.8321519095        2.1874954811
 C         -1.2395324397       -2.2216845595        0.6376587804
 C          0.1886104302       -1.9410597196        0.2403242301
 C          0.9955550899       -2.8448262896       -0.4365733802
 C          2.3006972999       -2.5134243797       -0.7578718305
 C          2.8275963201       -1.2821612398       -0.4165639705
 C          2.0308405504       -0.3707794498        0.2646514998
 C          0.7282454204       -0.7097578697        0.5943161601
 H          0.1069295906        0.0017831303        1.1261791204
 N          2.5503454706        0.8919154101        0.6005887799
 S          4.0298156008        0.9631820698        1.3903933395
 O          4.2628425509       -0.2208906403        2.1845904393
 O          4.0158316511        2.2221971597        2.1033045797
 C          5.2188257405        1.0581987999        0.0690711593
 C          6.2382267504        0.1297706398       -0.0096495011
 C          7.1561604601        0.2290298298       -1.0437562813
 C          7.0395915500        1.2500439100       -1.9744090212
 C          6.0115690901        2.1763650801       -1.8792870708
 C          5.0912456304        2.0832600300       -0.8476181106
 H          4.2804353705        2.7838511101       -0.7363615503
 H          5.9239139800        2.9689118602       -2.6049353107
 H          7.7541234898        1.3248832800       -2.7788610813
 H          7.9563152600       -0.4896139803       -1.1193758316
 H          6.2859180605       -0.6495888703        0.7341318088
 H          1.8800569808        1.5019273401        1.0452920001
 H          3.8406406701       -1.0190528799       -0.6733436207
 H          2.9146414797       -3.2237587397       -1.2902731208
 H          0.5981801998       -3.8017451495       -0.7316581003
 H         -1.3112358894       -2.0921606297        1.7313234604
 C         -1.6811481099       -3.6480223894        0.3464766103
 C         -3.1219182600       -3.9750947092        0.0942813206
 C         -2.1222842603       -4.0914179092       -1.0150666596
 H         -1.8408972505       -5.0801985092       -1.3468869699
 H         -2.1332520904       -3.3530620991       -1.8009782595
 H         -3.5248276600       -4.8797735592        0.5244462306
 H         -3.8244016400       -3.1546460391        0.0661705109
 H         -1.1243084599       -4.3698190696        0.9364142701
