  62
        -98.93864789
 C         -1.9413347993       -1.3616209749        0.3229399174
 C         -2.6257629613       -0.8465805066       -0.8021806429
 C         -3.8274972320       -0.0387713715       -0.5205287202
 C         -4.1907025372        0.1726351513        0.7562925570
 C         -5.3411477368        1.0023624995        1.2556104543
 C         -4.8814916571        2.4361783550        1.5696531892
 C         -4.9152724233        3.3986211973        0.3828965807
 H         -5.9542744883        3.6272375474        0.1365091488
 H         -4.4431908715        4.3295668148        0.7057073139
 C         -4.2110079335        2.9043865229       -0.8836794080
 H         -3.9796693597        3.7760767303       -1.4991731412
 H         -3.2600428761        2.4369651626       -0.6201743642
 C         -5.0642548515        1.9275947890       -1.7066755474
 H         -5.0962731009        2.2638458652       -2.7450693913
 H         -6.0905192630        1.9568558822       -1.3408161680
 C         -4.5635559738        0.4756562897       -1.7272562321
 H         -5.4091149424       -0.1899466176       -1.9303905544
 H         -3.8583613420        0.3464460353       -2.5545274044
 H         -3.8660884133        2.3824460220        1.9711998458
 H         -5.5206933351        2.8456035156        2.3545248653
 H         -5.6824912816        0.5362033249        2.1823035522
 H         -6.1578632319        0.9990987691        0.5401080617
 O         -3.4855477377       -0.3214451261        1.8118336579
 C         -2.3493766779       -1.0873153832        1.6271317393
 O         -1.7939738489       -1.4525182822        2.6840138146
 O         -2.2530537061       -1.0447314228       -1.9876552322
 C         -0.6977927872       -2.2120719381        0.1331748336
 C          0.3678883207       -1.4106623628       -0.5751696160
 C          1.0672173797       -1.8685998979       -1.6831660529
 C          2.0278901309       -1.0721715534       -2.2840269930
 C          2.3204313317        0.1847121472       -1.7893382047
 C          1.6422620499        0.6431859456       -0.6660924352
 C          0.6808484294       -0.1551049133       -0.0670136674
 H          0.1509917529        0.2042387102        0.8072001862
 N          1.9515170303        1.9085860415       -0.1385568699
 S          3.5696380705        2.3087498302        0.0194838416
 O          3.6239242525        3.2387125858        1.1258158774
 O          4.0718124276        2.8012382880       -1.2390131225
 C          4.3929317186        0.7823131728        0.4397040443
 C          5.3686168742        0.2736500337       -0.3930820879
 C          5.9712841958       -0.9296806572       -0.0628159616
 C          5.5862116956       -1.6020904826        1.0863667007
 C          4.6068586786       -1.0760874801        1.9152633824
 C          4.0028561263        0.1277064511        1.5913352164
 H          3.2409253421        0.5636380007        2.2180643727
 H          4.3076347801       -1.5997217628        2.8091577100
 H          6.0512573671       -2.5415356905        1.3401150171
 H          6.7346302504       -1.3399765768       -0.7039498844
 H          5.6344608337        0.8276363338       -1.2785677590
 H          1.4323538929        2.1450037893        0.6938001268
 H          3.0529668264        0.8227312029       -2.2564791518
 H          2.5540255864       -1.4351369234       -3.1534589129
 H          0.8530537668       -2.8446606015       -2.0853394677
 H         -0.3316871170       -2.4399176577        1.1449945951
 C         -1.0488080031       -3.5109463548       -0.5608870019
 C         -0.2239285928       -4.7386554170       -0.3217695832
 C         -1.6027749725       -4.6379960139        0.2561012433
 H         -2.3884016805       -5.2450040294       -0.1682051429
 H         -1.7043343929       -4.4764062986        1.3197326975
 H         -0.0636986037       -5.4206005341       -1.1430395450
 H          0.6144352909       -4.6541647880        0.3528035333
 H         -1.4684135714       -3.3562619658       -1.5479513546
