  62
        -98.94055378
 C         -2.5756318797       -0.2731087017       -0.4708151896
 C         -2.1940001492       -0.8989500917        0.7401709702
 C         -1.5117773785       -2.1938470213        0.6105781300
 C         -1.2698545883       -2.6878537910       -0.6168963301
 C         -0.4452326976       -3.9075044604       -0.9149098704
 C          1.0511170922       -3.5522918396       -0.7887575805
 C          1.7781796827       -4.2828015194        0.3404066693
 H          1.9519377433       -5.3186164792        0.0397510691
 H          2.7514675225       -3.8025292188        0.4601006992
 C          1.0599227029       -4.2986519300        1.6932851693
 H          1.7977371831       -4.5960012197        2.4415791792
 H          0.2899114933       -5.0721110804        1.6900091793
 C          0.4218149222       -2.9738813904        2.1312363996
 H          0.5743132922       -2.8616462105        3.2069770596
 H          0.9079582016       -2.1253992701        1.6486656797
 C         -1.0955482279       -2.8824425712        1.8802718698
 H         -1.5380719173       -3.8821312115        1.9179858997
 H         -1.5452277282       -2.2878679016        2.6809422400
 H          1.1372429116       -2.4727775696       -0.6381148104
 H          1.5593561222       -3.7765750292       -1.7285757406
 H         -0.7092851771       -4.7105145107       -0.2302154305
 H         -0.6782328376       -4.2215164804       -1.9327476804
 O         -1.6792115388       -2.0721865710       -1.7580025700
 C         -2.3168140895       -0.8436852914       -1.7148338997
 O         -2.6064459499       -0.3722749214       -2.8355273896
 H         -0.5562168506        1.1877671095       -0.9606243996
 C         -0.8095831209        1.8998020092       -0.1874464295
 C         -2.1347566409        2.0404929284        0.2059069807
 C         -2.4399890814        2.9802422181        1.1809074908
 C         -1.4321278617        3.7246904686        1.7710036008
 C         -0.1085045417        3.5373700194        1.4185471707
 C          0.2040877788        2.6147990197        0.4254559005
 N          1.5341721488        2.3988923106        0.0210237903
 S          1.9593083197        0.8378027209       -0.4685063200
 O          1.6133615996        0.6767621709       -1.8595694100
 O          1.4251577203       -0.1439104596        0.4463842899
 C          3.7330077396        0.9243476019       -0.3061225702
 C          4.4596109492        1.5403382224       -1.3076059902
 C          5.8356910991        1.6358775132       -1.1749232703
 C          6.4588222996        1.1170597734       -0.0493947705
 C          5.7168157900        0.4999382828        0.9463595495
 C          4.3396819201        0.4025670420        0.8205758097
 H          3.7222913504       -0.0742354184        1.5651499197
 H          6.2038452704        0.0944752130        1.8184637894
 H          7.5300786195        1.1913377040        0.0506830194
 H          6.4158110988        2.1121270637       -1.9487191703
 H          3.9312697289        1.9179248123       -2.1675056001
 H          2.2079586987        2.7792596108        0.6720543303
 H          0.6766575981        4.0960437098        1.9047743307
 H         -1.6805682421        4.4461678683        2.5346085510
 H         -3.4628878014        3.1172481275        1.4913675310
 C         -3.1533012905        1.1317099579       -0.4424141993
 H         -3.2693821208        1.4355577980       -1.4936789893
 C         -4.5091902204        1.1563486370        0.2293605308
 C         -5.5215443811        2.1920477465       -0.1555260389
 C         -5.7160880603        0.7645778965       -0.5671562091
 H         -6.4879071399        0.1859770760       -0.0824868591
 H         -5.5593602503        0.5020135567       -1.6035800292
 H         -5.2429108416        2.9040460168       -0.9177021688
 H         -6.1657902012        2.5936382360        0.6119130712
 H         -4.4653077701        0.8365828769        1.2638426908
 O         -2.4078058693       -0.3968054920        1.8755573403
