  62
        -98.94637516
 C         -1.7781504356       -0.7416820563        0.2396754647
 C         -3.0704925360       -0.9579809050        0.7752911980
 C         -3.9778992049        0.1941979652        0.7368849258
 C         -3.5463655220        1.3676349828        0.2393671635
 C         -4.3457108806        2.6394883588        0.1532586690
 C         -5.2482556246        2.7260201433       -1.0851650342
 C         -6.4811420160        1.8218327034       -1.0564344342
 H         -7.0261216693        1.9814201216       -0.1255110300
 H         -7.1316093512        2.1411272145       -1.8731775198
 C         -6.1745832205        0.3272039381       -1.2260580526
 H         -5.1688991494        0.2051759892       -1.6351596860
 H         -6.8680135435       -0.1070604309       -1.9498211804
 C         -6.2887377763       -0.4935224780        0.0586624146
 H         -6.0141795831       -1.5266023867       -0.1696375706
 H         -7.3244935386       -0.4895982829        0.4054447815
 C         -5.3889143327       -0.0053944603        1.2014776981
 H         -5.7855610898        0.9171772149        1.6246321386
 H         -5.3774099969       -0.7721456514        1.9800417180
 H         -4.6500115780        2.4978459039       -1.9703595775
 H         -5.5859231773        3.7614556562       -1.1704277124
 H         -3.6238141968        3.4577301765        0.1102679919
 H         -4.9496931069        2.7553211561        1.0535618271
 O         -2.2858553885        1.5421380479       -0.2394280329
 C         -1.3791955658        0.4923514568       -0.2714672293
 O         -0.2730848258        0.7868152659       -0.7617016955
 O         -3.4431507392       -2.0562933388        1.2677841200
 C         -0.7914158263       -1.8946471107        0.2126243179
 C          0.4616046066       -1.5233288325        0.9649384904
 C          0.3448509713       -1.0886002360        2.2838826623
 C          1.4616909174       -0.7363101894        3.0152007103
 C          2.7213622009       -0.8010500353        2.4438637870
 C          2.8499491942       -1.2375640994        1.1320619447
 C          1.7256727865       -1.6061569639        0.4037233214
 H          1.8601291177       -1.9350370218       -0.6125887897
 N          4.1184624053       -1.3377325231        0.5276922209
 S          4.4260790745       -0.4816322836       -0.8791504440
 O          3.5272316048       -0.9058260981       -1.9196323476
 O          5.8365078997       -0.6870678372       -1.1299535771
 C          4.1478282759        1.2232615607       -0.4337570954
 C          5.2407589241        1.9976289414       -0.0924927106
 C          5.0376263645        3.3040765620        0.3195930426
 C          3.7481070741        3.8097095659        0.3934345176
 C          2.6634588733        3.0174578209        0.0519587729
 C          2.8576979625        1.7093349794       -0.3662574260
 H          2.0199300155        1.0860053404       -0.6371052267
 H          1.6560176415        3.3990866740        0.1058357574
 H          3.5865450882        4.8260004038        0.7171339688
 H          5.8809771130        3.9219259997        0.5830451856
 H          6.2245323113        1.5632133962       -0.1692530557
 H          4.8843446878       -1.1948678878        1.1718297660
 H          3.5965107268       -0.5206574441        3.0103830748
 H          1.3528784897       -0.4020945211        4.0358645713
 H         -0.6404692611       -1.0309674029        2.7263957137
 H         -1.2862985135       -2.7144924726        0.7546036874
 C         -0.5387713772       -2.3402570566       -1.2120898724
 C         -0.1391288117       -3.7559877651       -1.4971517709
 C         -1.5104945838       -3.2757836424       -1.8638849272
 H         -1.7460749227       -3.1304522344       -2.9076169450
 H         -2.3472630047       -3.6139910964       -1.2700186436
 H          0.5720343443       -3.9389554232       -2.2887882292
 H         -0.0449987282       -4.4272292392       -0.6568866760
 H         -0.1104333521       -1.5578193847       -1.8297383920
