  62
        -98.93533110
 C         -2.2202646292       -1.0517423710       -0.0308957261
 C         -2.9712964910       -0.4642352881        1.0176067461
 C         -3.8641854420        0.6580455329        0.6731378479
 C         -3.9009048975        1.0816886559       -0.6034754154
 C         -4.7579401458        2.1647495492       -1.2020600719
 C         -6.2158883682        1.7195048169       -1.4054467026
 C         -6.8186778403        0.9352223329       -0.2425970613
 H         -7.8030528775        0.5792718782       -0.5578181895
 H         -6.2036072348        0.0549394594       -0.0469062132
 C         -7.0007156238        1.7249088248        1.0513221981
 H         -7.6572862095        2.5769132837        0.8611554025
 H         -7.5064645102        1.0682636805        1.7637740045
 C         -5.7181263916        2.2394539037        1.7077345297
 H         -5.3350720114        3.1131094353        1.1871398311
 H         -5.9795040996        2.5704487343        2.7171495031
 C         -4.6170179110        1.1953347489        1.8662623639
 H         -5.0247666426        0.3194704829        2.3836002983
 H         -3.8507834036        1.5968840929        2.5408052154
 H         -6.8221472682        2.6047451792       -1.6042281146
 H         -6.2516263762        1.0800024994       -2.2908061489
 H         -4.3275437472        2.4031965363       -2.1773229844
 H         -4.7060377597        3.0608260449       -0.5906169541
 O         -3.1422139096        0.5057088678       -1.5773753255
 C         -2.2900260684       -0.5587877333       -1.3332594389
 O         -1.6754379401       -0.9462930447       -2.3459474921
 O         -2.9141734344       -0.8753724367        2.2081210541
 C         -1.3401742543       -2.2332443544        0.3404451157
 C          0.0741766136       -1.7914621372        0.6153870431
 C          0.6947964362       -2.0837894465        1.8238772432
 C          1.9891078996       -1.6597057267        2.0712207403
 C          2.6907126844       -0.9416158751        1.1195348873
 C          2.0763018841       -0.6368866261       -0.0882322138
 C          0.7781888157       -1.0602847750       -0.3322045102
 H          0.3027976320       -0.8180307031       -1.2717735725
 N          2.7823571223        0.0865117186       -1.0677908425
 S          3.4581518698        1.5534355042       -0.6032833132
 O          2.7228485443        2.1514947472        0.4879738181
 O          3.5558609566        2.3329884956       -1.8179703465
 C          5.0975367244        1.1096324659       -0.0673853084
 C          5.5227530348        1.4446599818        1.2031969969
 C          6.8054713442        1.0931166722        1.5946605704
 C          7.6352685971        0.4172026780        0.7132777159
 C          7.1936185740        0.0901451191       -0.5603160171
 C          5.9133003065        0.4399619865       -0.9584818414
 H          5.5324704212        0.2091181147       -1.9393528943
 H          7.8416552238       -0.4355547287       -1.2429709665
 H          8.6322320571        0.1436263699        1.0207457059
 H          7.1505319983        1.3468588882        2.5840986415
 H          4.8398540608        1.9652239837        1.8557030487
 H          2.2609117838        0.1981766922       -1.9262715180
 H          3.6990592461       -0.6096436738        1.3054621918
 H          2.4576688092       -1.8916356088        3.0153414475
 H          0.1490553706       -2.6322920629        2.5775540287
 H         -1.7602165113       -2.5981907289        1.2910251823
 C         -1.4290030639       -3.3769263548       -0.6618982218
 C         -0.2971128068       -3.8128233360       -1.5387461540
 C         -0.7181107101       -4.6688510341       -0.3846977661
 H         -1.2316552569       -5.5970610183       -0.5837022483
 H         -0.0663511306       -4.6973910104        0.4755462297
 H         -0.5395730007       -4.1308458331       -2.5413603772
 H          0.6414315838       -3.2867480024       -1.4668564868
 H         -2.4214411118       -3.4525205851       -1.0954824262
