  62
        -98.93936236
 C          0.9531170285        1.3045411248       -0.1597492705
 C          1.7228964316        0.6754191806        0.8515568247
 C          2.6057967724       -0.4262172506        0.4352847999
 C          2.6100346081       -0.8094807460       -0.8524932399
 C          3.3650254235       -1.9481637809       -1.4925185713
 C          4.8299114868       -2.1469265409       -1.0805082841
 C          5.5917099599       -0.8533903787       -0.7568974899
 H          6.5258939837       -0.8415011160       -1.3214250249
 H          5.0090437040        0.0130399014       -1.0752538156
 C          5.9382912318       -0.7195844460        0.7278856560
 H          6.2922103413       -1.6861187880        1.0931489078
 H          6.7621071437       -0.0094807331        0.8323512008
 C          4.8023402968       -0.2302457117        1.6251120162
 H          4.5877153835        0.8199551335        1.4100121502
 H          5.1474214897       -0.2810026792        2.6604571107
 C          3.4818543026       -1.0094530129        1.5077618403
 H          2.9349378751       -0.8813814446        2.4458666757
 H          3.6672862177       -2.0694837374        1.3494503086
 H          5.3214694614       -2.6625594016       -1.9072568290
 H          4.8803470953       -2.8144746045       -0.2214282258
 H          2.8100798860       -2.8724845540       -1.3038235434
 H          3.3092587051       -1.7570965918       -2.5671970306
 O          1.8442844166       -0.1889496114       -1.7930752768
 C          1.0195066112        0.8880143408       -1.4895011308
 O          0.4316359349        1.3537587460       -2.4845707018
 O          1.6743016927        1.0225080091        2.0612646236
 C          0.0673252895        2.4508511148        0.2881092401
 C         -1.3490480670        2.0115536280        0.5807065067
 C         -2.0245136812        2.5280262549        1.6818000079
 C         -3.3330434305        2.1659240978        1.9419352413
 C         -3.9867662195        1.2641457460        1.1217488300
 C         -3.3190073192        0.7354257746        0.0238528270
 C         -2.0118120801        1.1171177940       -0.2465440507
 H         -1.5208188549        0.7131018265       -1.1179748017
 N         -3.9482175206       -0.1984780888       -0.8171191942
 S         -3.0885348096       -1.5654557827       -1.2546757258
 O         -2.1908830716       -1.2829140678       -2.3438850577
 O         -4.1102697764       -2.5566770147       -1.5235280106
 C         -2.1797628678       -2.0207146266        0.2111615136
 C         -0.8012963450       -1.9959103579        0.2037412855
 C         -0.1180221985       -2.3417756443        1.3588834700
 C         -0.8233863936       -2.6927551240        2.4987570138
 C         -2.2099532885       -2.7128155839        2.4913312080
 C         -2.8970129149       -2.3762479865        1.3371755322
 H         -3.9735288983       -2.3975480772        1.2896028373
 H         -2.7542380610       -2.9888027221        3.3799121979
 H         -0.2853228191       -2.9522713928        3.3965975730
 H          0.9597820732       -2.3203727036        1.3635574368
 H         -0.2886974899       -1.7047361972       -0.7003519183
 H         -4.8898150803       -0.4387820483       -0.5411100493
 H         -5.0051731831        0.9709274317        1.3251925899
 H         -3.8457733760        2.5787452070        2.7968567127
 H         -1.5127613080        3.2134214976        2.3401651997
 H          0.5043203040        2.7990383434        1.2346819352
 C          0.0404610107        3.6180413360       -0.6814576039
 C         -0.2133523260        5.0019494749       -0.1671766809
 C          1.1518702729        4.6223528697       -0.6552343976
 H          1.5021636373        5.0253763323       -1.5935242596
 H          1.9336723313        4.4810947217        0.0770507573
 H         -0.8073097519        5.6714105618       -0.7700339252
 H         -0.3502442794        5.1283206487        0.8956679672
 H         -0.3693309165        3.3561863173       -1.6487805810
