  62
        -98.93889878
 C          1.9086233024        1.3242222807        0.3396910845
 C          2.6255693171        0.7847959227       -0.7530831651
 C          3.8375460872        0.0092288217       -0.4259148623
 C          4.1784214213       -0.1760286687        0.8630256567
 C          5.3669642585       -0.8721444551        1.4933981108
 C          6.2786559046       -1.7690598997        0.6606573858
 C          5.6296848275       -3.0666588980        0.1789643876
 H          6.3254832215       -3.5679044285       -0.4972434381
 H          5.4774970245       -3.7193178352        1.0424445639
 C          4.2819016386       -2.9104893518       -0.5211499577
 H          3.5538553858       -2.4855970314        0.1732742184
 H          3.9249244512       -3.9092745849       -0.7872411624
 C          4.3001563624       -2.0699194805       -1.7960960567
 H          3.3167195785       -2.1625757449       -2.2654530106
 H          5.0409423492       -2.4716949370       -2.4901980424
 C          4.5780253094       -0.5705587410       -1.5965613379
 H          5.6442566297       -0.3737985595       -1.5152169592
 H          4.2123031824       -0.0411944256       -2.4813237264
 H          7.1199163584       -2.0410202893        1.3039163186
 H          6.6904731850       -1.2130683483       -0.1763506348
 H          4.9650821415       -1.4502782009        2.3318065506
 H          5.9751700609       -0.0746655767        1.9345647305
 O          3.4300784296        0.3353982618        1.8856432394
 C          2.2875185162        1.0805988442        1.6575767360
 O          1.7012514260        1.4551144591        2.6944584855
 O          2.2824865713        0.9478754639       -1.9522557196
 C          0.6600940035        2.1553587323        0.1016834462
 C         -0.3893204438        1.3120848425       -0.5817597470
 C         -1.0405896455        1.6850174180       -1.7491394952
 C         -1.9864287559        0.8502353307       -2.3209778887
 C         -2.3125520949       -0.3595227602       -1.7377698555
 C         -1.6825741888       -0.7315523015       -0.5558889254
 C         -0.7337763651        0.1033213308        0.0125049578
 H         -0.2399507288       -0.1886497588        0.9317071498
 N         -2.0297780758       -1.9455246935        0.0611422119
 S         -3.6588621586       -2.3110421736        0.1874077254
 O         -3.7725834180       -3.1377406839        1.3687188999
 O         -4.1172657055       -2.9085544825       -1.0421040417
 C         -4.4766612430       -0.7441456699        0.4352239416
 C         -4.1124237578        0.0158749542        1.5291184694
 C         -4.7137815311        1.2493856126        1.7182265449
 C         -5.6653205988        1.6993382413        0.8154734793
 C         -6.0252421069        0.9215198710       -0.2737627820
 C         -5.4247819732       -0.3119279645       -0.4695073956
 H         -5.6710097745       -0.9469579842       -1.3048404112
 H         -6.7672019666        1.2728014647       -0.9724495978
 H         -6.1283093342        2.6619880582        0.9642392627
 H         -4.4341761368        1.8548881321        2.5655531454
 H         -3.3718010368       -0.3618767662        2.2162159541
 H         -1.5450992620       -2.1189836490        0.9290978980
 H         -3.0352589530       -1.0263957235       -2.1792908518
 H         -2.4748410756        1.1458490177       -3.2367181349
 H         -0.8001936401        2.6234986936       -2.2198831461
 H          0.2811787595        2.4198810856        1.0996745701
 C          1.0040047808        3.4285052104       -0.6412986069
 C          0.1442389085        4.6452008790       -0.4822164431
 C          1.5080578662        4.6050270307        0.1372643694
 H          2.2910756220        5.2109615367       -0.2933337839
 H          1.5827847718        4.4957628956        1.2097379339
 H         -0.0089218497        5.2844620558       -1.3383742698
 H         -0.7109014589        4.5704695611        0.1721363629
 H          1.4553617619        3.2396081072       -1.6080603290
