  62
        -98.93204779
 C         -2.2281809722       -1.0318650522       -0.3172185751
 C         -3.6117565745       -1.1361013710       -0.0269679327
 C         -4.4654763227        0.0237259574       -0.3479669122
 C         -3.8881958228        1.1241190665       -0.8639739813
 C         -4.5341515104        2.4349444897       -1.2260902104
 C         -4.8549708206        3.2964392796        0.0058776900
 C         -5.4822926311        2.5397986170        1.1738529404
 H         -5.5596536030        3.2339197953        2.0149582542
 H         -4.8114317474        1.7351807672        1.4810501006
 C         -6.8738368391        1.9698233049        0.9088560243
 H         -7.5487465908        2.7849715830        0.6384749154
 H         -7.2317601178        1.5404226563        1.8481206619
 C         -6.9605273696        0.8884091936       -0.1702538772
 H         -6.9250577854        1.3232209676       -1.1655325339
 H         -7.9406747855        0.4121530633       -0.0746352130
 C         -5.9234669012       -0.2230829117       -0.0432772433
 H         -6.2234626463       -1.0549940377       -0.6921453771
 H         -5.9544760925       -0.6282122968        0.9745955885
 H         -5.5164901688        4.1075595534       -0.3030791163
 H         -3.9206358395        3.7389681150        0.3604831464
 H         -5.4264316819        2.2602105269       -1.8199350373
 H         -3.8186153592        2.9749072807       -1.8502232437
 O         -2.5477921059        1.1949755738       -1.0967579486
 C         -1.6835935534        0.1427728546       -0.8386170573
 O         -0.4975820350        0.3919224463       -1.1256701607
 O         -4.1259998304       -2.1647117966        0.4893122931
 C         -1.3542988888       -2.2230867881        0.0379897568
 C         -0.1992690925       -1.7631843756        0.8890063856
 C         -0.4052548687       -1.5144047304        2.2426250618
 C          0.6199360964       -1.0336411981        3.0354353014
 C          1.8680881198       -0.7826365365        2.4930674799
 C          2.0787595947       -1.0156216104        1.1410368625
 C          1.0531872674       -1.5182086461        0.3504337662
 H          1.2202246734       -1.6801288610       -0.7030108855
 N          3.3426984214       -0.7616235903        0.5745758050
 S          4.1404903092        0.6444495392        1.0654108598
 O          4.8127399877        0.3685326100        2.3121353442
 O          3.2354964446        1.7716535680        1.0785328252
 C          5.3425269077        0.8203643065       -0.2381729646
 C          4.9909248654        1.5178699205       -1.3785273066
 C          5.9148078455        1.6314796303       -2.4054350748
 C          7.1656323073        1.0460074489       -2.2765019344
 C          7.5030935755        0.3486483002       -1.1262464346
 C          6.5844825700        0.2319440314       -0.0950800023
 H          6.8027795070       -0.2930076954        0.8201414810
 H          8.4770508588       -0.1031564722       -1.0295901536
 H          7.8819785751        1.1367832869       -3.0776998285
 H          5.6551408532        2.1747456052       -3.2998869213
 H          4.0094630034        1.9627946159       -1.4332996271
 H          3.3087132204       -0.8122591072       -0.4350037484
 H          2.6723940799       -0.3895894470        3.0940846427
 H          0.4467786670       -0.8447626911        4.0845053653
 H         -1.3854706876       -1.6905904034        2.6644399518
 H         -2.0050591024       -2.8577046581        0.6609108280
 C         -0.9209824038       -3.0789102390       -1.1426154665
 C         -1.8781751310       -3.3680752104       -2.2592271448
 C         -0.6624071721       -2.5305830520       -2.5125311301
 H          0.1436672272       -2.9630376850       -3.0875834739
 H         -0.7881285797       -1.4708386456       -2.6679069541
 H         -1.9123805696       -4.3673401602       -2.6660923501
 H         -2.8387029916       -2.8745740471       -2.2265919276
 H         -0.2870858159       -3.9012737463       -0.8243681912
