  62
        -98.93812120
 C          1.7197314851        0.0406161660        0.9723236146
 C          2.9214702573        0.7885806812        0.9048389920
 C          4.1450759560        0.0091149364        0.6471606920
 C          4.0692916054       -1.3257813186        0.5078478808
 C          5.2263039122       -2.2251380878        0.1842237163
 C          5.3725663156       -2.4165574428       -1.3318307392
 C          5.3480330466       -1.1094770164       -2.1243133039
 H          4.3575063076       -0.6572054337       -2.0354070032
 H          5.4907829028       -1.3646382169       -3.1766591886
 C          6.4115978259       -0.0880911734       -1.6974871364
 H          6.8761025746        0.3285678278       -2.5937828106
 H          7.1969779376       -0.5867097792       -1.1282686552
 C          5.8705182813        1.0916671709       -0.8875339030
 H          5.0214249202        1.5369241508       -1.4122576159
 H          6.6540539977        1.8519975149       -0.8299290095
 C          5.4359335025        0.7727204418        0.5486424605
 H          5.2617774801        1.7233466181        1.0613314704
 H          6.2382432058        0.2443592244        1.0674938706
 H          4.5499768690       -3.0441666122       -1.6823345182
 H          6.3086658317       -2.9438185410       -1.5246560747
 H          6.1384504886       -1.7989706650        0.5972516418
 H          5.0468580613       -3.1962926254        0.6485724476
 O          2.9011656180       -2.0113950012        0.5994260773
 C          1.7063448858       -1.3487800835        0.8175275430
 O          0.7092210582       -2.0971331324        0.8648365849
 H         -2.1227835649        0.1386496844        0.3310479845
 C         -1.5811439912        0.7591091308       -0.3654741496
 C         -0.2725754058        1.1203317360       -0.0823842570
 C          0.4222565486        1.8994416413       -1.0020700081
 C         -0.1906839772        2.3114612518       -2.1712338899
 C         -1.5055779450        1.9715173473       -2.4372732374
 C         -2.2073680228        1.1898665135       -1.5268620779
 N         -3.5317962978        0.8130744034       -1.7758717033
 S         -4.6172230900        0.5953250908       -0.5236718476
 O         -5.9154778754        0.7027571883       -1.1532531080
 O         -4.3620208003        1.5068783533        0.5666507965
 C         -4.3574238024       -1.0879014586       -0.0083517470
 C         -4.1569785995       -1.3756007663        1.3267656484
 C         -3.9651960556       -2.6943342494        1.7070932495
 C         -3.9790006639       -3.6969152378        0.7502541423
 C         -4.1865059273       -3.3919222614       -0.5864456826
 C         -4.3788208594       -2.0756747184       -0.9727629755
 H         -4.5434928046       -1.8005388694       -2.0011983827
 H         -4.1948205797       -4.1755196031       -1.3269280940
 H         -3.8243448452       -4.7216601746        1.0490695230
 H         -3.8003188364       -2.9330634443        2.7455821798
 H         -4.1454151204       -0.5651802859        2.0391683639
 H         -3.9553143607        1.2244739121       -2.5940159299
 H         -1.9852624447        2.3051931193       -3.3448170716
 H          0.3573400281        2.9157128610       -2.8786435020
 H          1.4398702250        2.1866383082       -0.7856143999
 C          0.3576626159        0.6702253640        1.2101875077
 H         -0.2672391243       -0.1445738894        1.6098740309
 C          0.3747117217        1.7711384585        2.2625612911
 C          0.1917501067        3.2229777269        1.9527062208
 C         -0.9028802631        2.4639360589        2.6372394384
 H         -1.0965109980        2.6619663708        3.6809154005
 H         -1.7890280036        2.2328716728        2.0624603364
 H          0.0441633243        3.5130466391        0.9245728141
 H          0.7722139079        3.9317596305        2.5234123191
 H          1.0556697014        1.5387544536        3.0753992801
 O          2.9932848503        2.0359107129        1.0445616664
