  62
        -98.94358075
 C          1.7364792862        1.0754693939       -0.5665487280
 C          1.8883178971        0.0714257212        0.4204282521
 C          3.2633201912       -0.1578585332        0.8832553586
 C          4.2692782354        0.5891999771        0.3934775140
 C          5.7185755767        0.4896714291        0.7860646715
 C          6.4937167429       -0.6039703863        0.0384249611
 C          6.1653261414       -2.0371536805        0.4587527232
 H          6.9282156102       -2.6821794454        0.0181376908
 H          6.2515421885       -2.1251335215        1.5422246651
 C          4.7826559035       -2.5284883463        0.0078192370
 H          4.4053748925       -1.8770323060       -0.7837876285
 H          4.8742998943       -3.5299739699       -0.4185553131
 C          3.7410709335       -2.6044044219        1.1242697914
 H          4.0453430879       -3.3536298890        1.8584929649
 H          2.7927961381       -2.9254469488        0.6863725106
 C          3.4993737741       -1.2760770722        1.8530974257
 H          2.5998256477       -1.3778162618        2.4649546775
 H          4.3420579600       -1.0450898271        2.5043905466
 H          6.3149365336       -0.4880558168       -1.0330838335
 H          7.5571990055       -0.4298477914        0.2180221295
 H          6.1716008855        1.4550221467        0.5499331270
 H          5.7970391986        0.3232032723        1.8608131348
 O          4.0741386227        1.5676356769       -0.5313869055
 C          2.8123312991        1.8223096766       -1.0445923504
 O          2.7783427787        2.7312687528       -1.8997548441
 H         -2.1577866885        0.4414523855       -0.5128465990
 C         -1.8128133210        1.1987241246        0.1687998628
 C         -0.5705363665        1.7831824110       -0.0133660559
 C         -0.1665900439        2.7823504238        0.8688883890
 C         -0.9820800501        3.1710390324        1.9134377479
 C         -2.2149398000        2.5712694047        2.1036654908
 C         -2.6299436880        1.5764616377        1.2264406890
 N         -3.8476488251        0.9217631651        1.4247825612
 S         -4.6486067364        0.0793103990        0.2366038957
 O         -4.7145426428        0.8235111148       -0.9999603889
 O         -5.9237461283       -0.2494912803        0.8375673836
 C         -3.6987905448       -1.4089607756        0.0034251399
 C         -3.5781247860       -1.9258014826       -1.2714033861
 C         -2.8440195920       -3.0855980882       -1.4595693333
 C         -2.2476774327       -3.7068890627       -0.3732573394
 C         -2.3847000917       -3.1796238051        0.9013727669
 C         -3.1189877807       -2.0210767535        1.0960749381
 H         -3.2342709568       -1.5824067400        2.0730961813
 H         -1.9139498659       -3.6621415795        1.7426441872
 H         -1.6693186584       -4.6053082637       -0.5216295205
 H         -2.7353175181       -3.4971007168       -2.4506041417
 H         -4.0490554963       -1.4021503934       -2.0886141207
 H         -4.4440897608        1.2779855044        2.1545062164
 H         -2.8474235766        2.8664366406        2.9267600823
 H         -0.6554336493        3.9468548004        2.5897263375
 H          0.8003148192        3.2460445200        0.7253039206
 C          0.3587613914        1.3737179773       -1.1298539013
 H          0.4823040211        2.2332016335       -1.8050769538
 C         -0.1405268798        0.1889669963       -1.9307959074
 C         -1.1113632313        0.3915366409       -3.0534903030
 C          0.3123358071        0.0297492085       -3.3497300610
 H          0.5272463432       -0.9632605250       -3.7145326412
 H          0.9629562107        0.7932006437       -3.7515547166
 H         -1.8755806810       -0.3534544861       -3.2145623837
 H         -1.4358338810        1.4005502831       -3.2592920409
 H         -0.2331123704       -0.7100654384       -1.3314648269
 O          0.9325704228       -0.5959322242        0.8918591457
