  62
        -98.94139574
 C         -2.3137035687       -1.0957138851       -0.5222486256
 C         -3.6368446820       -0.9956456634       -0.0233422173
 C         -4.3910184869        0.1928738308       -0.4339580125
 C         -3.8113087013        1.1069993830       -1.2330431393
 C         -4.4535572472        2.3664308604       -1.7481221464
 C         -4.3921743215        3.5436919396       -0.7651498735
 C         -5.3228599309        3.4317927869        0.4431027117
 H         -5.3400046723        4.4111710162        0.9253835698
 H         -6.3363065031        3.2191707510        0.1013617385
 C         -4.8952560991        2.3811055727        1.4775400376
 H         -4.9632855285        2.8087904487        2.4804453866
 H         -3.8475587948        2.1149980364        1.3161930604
 C         -5.7378263587        1.1054832190        1.4711798235
 H         -6.7630030385        1.3422530333        1.7642569695
 H         -5.3246600775        0.4192092113        2.2147425668
 C         -5.7711760163        0.3774732270        0.1211005760
 H         -6.2019839714       -0.6144392667        0.2774947501
 H         -6.3956250639        0.9234499804       -0.5855186761
 H         -4.6596762142        4.4458503970       -1.3201830181
 H         -3.3612208878        3.6586327526       -0.4215447312
 H         -5.4918795305        2.1664779893       -2.0139848198
 H         -3.9093671047        2.6452365502       -2.6529495506
 O         -2.5395298982        0.9741648900       -1.6932476118
 C         -1.7530530934       -0.1133882222       -1.3386854907
 O         -0.6055705788       -0.0854462938       -1.8244758009
 O         -4.1629312462       -1.8618889941        0.7245710796
 C         -1.4776289277       -2.2925970454       -0.0987030937
 C         -0.3763225872       -1.7887578773        0.8004234453
 C         -0.6753482588       -1.4736867373        2.1234991395
 C          0.2855517286       -0.9297921812        2.9546161230
 C          1.5632359188       -0.6812231532        2.4831617635
 C          1.8677754194       -0.9843805647        1.1636523288
 C          0.9056225273       -1.5466578834        0.3342710172
 H          1.1519302248       -1.7614700467       -0.6934037930
 N          3.1636795390       -0.7315040874        0.6697106800
 S          3.8149039714        0.7873321977        1.0255412271
 O          4.3816254780        0.7378925842        2.3509696190
 O          2.8311724844        1.8238154320        0.8025965097
 C          5.1174337826        0.8888557650       -0.1859475079
 C          6.3983324931        0.5032120711        0.1592442723
 C          7.3954497122        0.5574916964       -0.8019700526
 C          7.0958454790        0.9913463388       -2.0845492222
 C          5.8046757570        1.3747663727       -2.4163127347
 C          4.8028107891        1.3229819809       -1.4601667468
 H          3.7872814847        1.6196499018       -1.6731894614
 H          5.5737654149        1.7127122636       -3.4138538391
 H          7.8727681568        1.0335229098       -2.8314555182
 H          8.4006369506        0.2619552851       -0.5483079098
 H          6.5831403201        0.1785635024        1.1698339824
 H          3.2123460141       -0.9014090650       -0.3265647799
 H          2.3187291505       -0.2382628068        3.1120600386
 H          0.0386572913       -0.6891659622        3.9780136290
 H         -1.6795019813       -1.6456301910        2.4862634392
 H         -2.1510775835       -2.9188158456        0.5018360780
 C         -0.9918708397       -3.0965517812       -1.2856196067
 C         -0.4588302393       -4.4800766173       -1.0670596840
 C         -1.7846120178       -4.2848055691       -1.7373225079
 H         -1.8617178489       -4.4784593052       -2.7966981974
 H         -2.6795644733       -4.5275679113       -1.1835879602
 H          0.3756541257       -4.8124949556       -1.6652237095
 H         -0.4521126243       -4.8550780228       -0.0548935644
 H         -0.5324204026       -2.4892729087       -2.0560456904
