  62
        -98.94701446
 C         -2.1563558895       -0.8660138536       -0.5043390390
 C         -1.4811909622        0.1900755054       -1.1616385018
 C         -2.0260556480        1.5392861719       -0.9481406101
 C         -3.0934898933        1.7073211335       -0.1489514875
 C         -3.7149997091        3.0292352966        0.1951487500
 C         -3.1025497760        3.6223227686        1.4711537440
 C         -1.5734725312        3.6413626568        1.4783256132
 H         -1.2593001699        4.1256536400        2.4060998106
 H         -1.1931954382        2.6169977795        1.5140201175
 C         -0.9390406431        4.3671598613        0.2838197731
 H         -0.1306195426        5.0019999301        0.6528251925
 H         -1.6746235454        5.0182583625       -0.1912556736
 C         -0.3285106473        3.4312177239       -0.7609310242
 H          0.3062888460        2.7003616026       -0.2532295135
 H          0.3100893464        4.0245330397       -1.4214244767
 C         -1.3339151992        2.6784985884       -1.6425125340
 H         -2.0636094374        3.3807742801       -2.0515740392
 H         -0.7815796249        2.2336970917       -2.4753252430
 H         -3.4795798447        4.6398663534        1.5926335261
 H         -3.4399018651        3.0305781609        2.3254372839
 H         -3.5787553946        3.7161594599       -0.6379284584
 H         -4.7835014497        2.8738050854        0.3554548928
 O         -3.7161611023        0.6731789633        0.4724871696
 C         -3.2580090122       -0.6232990392        0.3219054382
 O         -3.9178683315       -1.4722781636        0.9565468978
 O         -0.4760397172        0.0421839528       -1.9066310838
 C         -1.7230716587       -2.3234991348       -0.5762506561
 C         -0.6838643688       -2.5974649144        0.4857895397
 C         -0.8875913289       -3.5825068200        1.4441735865
 C          0.0460633249       -3.7929398175        2.4433670155
 C          1.1797947496       -3.0056281446        2.5204972470
 C          1.3932112331       -2.0156607524        1.5660716815
 C          0.4798939004       -1.8425762235        0.5376178234
 H          0.6539301504       -1.0812543214       -0.2031903970
 N          2.5287167464       -1.1965008474        1.6331311121
 S          2.4524998752        0.4549317573        1.3161962836
 O          3.2785071478        1.0597308332        2.3436340118
 O          1.0901375906        0.9197890718        1.2435131479
 C          3.3072856863        0.6081785155       -0.2389058786
 C          2.6180464452        0.7013498824       -1.4299639898
 C          3.3388870994        0.7953382299       -2.6117379250
 C          4.7240564222        0.7922339298       -2.5851079799
 C          5.4021307321        0.6976876827       -1.3786788086
 C          4.6894334093        0.6048498537       -0.1954872600
 H          5.1747080722        0.5447463022        0.7645669610
 H          6.4800725041        0.6962401935       -1.3580544819
 H          5.2769716506        0.8649497452       -3.5085245736
 H          2.8051420879        0.8667626644       -3.5460549506
 H          1.5387584977        0.6940280953       -1.4379349686
 H          3.1148441608       -1.3717370621        2.4364612181
 H          1.8940885862       -3.1477845206        3.3177346960
 H         -0.1212851332       -4.5619424253        3.1823930569
 H         -1.7940403125       -4.1692604177        1.4156282467
 H         -2.6167892851       -2.9114292778       -0.3244850483
 C         -1.2343522978       -2.7617041613       -1.9421659367
 C         -1.3107352270       -4.2126877813       -2.3069125802
 C         -2.2284847217       -3.2252428022       -2.9619751054
 H         -2.0614287234       -2.9677007588       -3.9968463416
 H         -3.2708342123       -3.2299729791       -2.6769561482
 H         -0.5104542161       -4.6378338015       -2.8926743023
 H         -1.7330811451       -4.8911028157       -1.5810786561
 H         -0.3845421740       -2.1959970206       -2.2985855619
