  62
        -98.93756243
 C          1.3234897401        1.5817486799       -0.9393600600
 C          2.5191523701        1.3834056897       -0.2058144802
 C          3.2547026299        0.1305672495       -0.4366397502
 C          2.7670314595       -0.7647671104       -1.3149215801
 C          3.2903053492       -2.1146515105       -1.7587657401
 C          4.3707214292       -2.8326903407       -0.9551780503
 C          3.9314683493       -3.2953705306        0.4336757898
 H          3.2006635591       -4.1000076904        0.3178375900
 H          4.8034411693       -3.7075280107        0.9471545297
 C          3.2938587797       -2.2277806604        1.3204909899
 H          3.0405564397       -2.6977468103        2.2756941799
 H          2.3508062597       -1.8918538702        0.8814503100
 C          4.1738641999       -1.0150051906        1.6201354597
 H          5.1238232599       -1.3469060507        2.0447758396
 H          3.6575623902       -0.4174335004        2.3768114397
 C          4.4642152199       -0.0923212607        0.4237678196
 H          4.7474248002        0.8890514693        0.8158902695
 H          5.2973706798       -0.4619350309       -0.1692901905
 H          5.2626363193       -2.2167778309       -0.8865296404
 H          4.6434069989       -3.7239448408       -1.5272598003
 H          3.6536518191       -1.9758067106       -2.7833272902
 H          2.4086763491       -2.7604466904       -1.8256814600
 O          1.6374548395       -0.5140195902       -2.0319062299
 C          0.8598662597        0.6183956000       -1.8320044699
 O         -0.1784847004        0.6284582601       -2.5197899697
 O          2.9586823104        2.2321670696        0.6178459197
 C          0.5149410704        2.8167919101       -0.5768878599
 C         -0.2410015295        2.5128426103        0.6937557402
 C         -0.2046415192        3.3634867603        1.7903719302
 C         -0.8285684990        3.0040617905        2.9730908603
 C         -1.4676995293        1.7837166506        3.0910258004
 C         -1.5146355396        0.9265023706        1.9948390505
 C         -0.9369298197        1.3160447404        0.7979941804
 H         -0.9770265700        0.6536437804       -0.0500310996
 N         -2.1434416398       -0.3203216393        2.0876844706
 S         -1.6753591202       -1.6633417394        1.1950101906
 O         -1.9064020503       -2.7779891593        2.0923162507
 O         -0.3372029403       -1.5365042697        0.6724565604
 C         -2.9006570705       -1.7273083892       -0.0963142392
 C         -2.6256302306       -1.2882987993       -1.3747101492
 C         -3.6310078807       -1.3412637992       -2.3295095791
 C         -4.8840731608       -1.8283605289       -1.9949291589
 C         -5.1442595007       -2.2686894588       -0.7053740488
 C         -4.1461471305       -2.2172730390        0.2523440710
 H         -4.2995038704       -2.5614967989        1.2616891611
 H         -6.1186936607       -2.6500644886       -0.4459269387
 H         -5.6598186109       -1.8662237588       -2.7434173488
 H         -3.4189332108       -0.9952877993       -3.3285863791
 H         -1.6473611005       -0.9073910195       -1.6259472794
 H         -2.4370711898       -0.5801452492        3.0173356207
 H         -1.9190497792        1.4874249208        4.0257329805
 H         -0.7926145288        3.6697891505        3.8221605203
 H          0.3395030210        4.2939922302        1.7234706500
 H          1.2593692006        3.5934566499       -0.3372550001
 C         -0.3632723397        3.3522973902       -1.6945362498
 C         -1.8521294697        3.2023129705       -1.7099147296
 C         -1.2406737994        4.5434596504       -1.4444163797
 H         -1.3076837794        5.3050416204       -2.2062866997
 H         -1.2877957092        4.9211352804       -0.4341363897
 H         -2.3244279399        3.0223278706       -2.6631661095
 H         -2.3208356097        2.6823319006       -0.8888762295
 H          0.1331935102        3.3044302501       -2.6577688199
