  62
        -98.94044743
 C          2.5435198774        1.2691745396        0.1329326510
 C          3.3946634386        0.6039365475        1.0548519120
 C          4.3497660663       -0.3534800290        0.4888205353
 C          4.3988266541       -0.5341485328       -0.8430018945
 C          5.3352625586       -1.4527583280       -1.5798486378
 C          4.8556280973       -2.9091992203       -1.6479032565
 C          4.9432057438       -3.6851856719       -0.3330480937
 H          4.7857612161       -4.7387151279       -0.5724531847
 H          5.9495636235       -3.5913336242        0.0760543988
 C          3.9137962139       -3.2601500889        0.7236346804
 H          3.1139534743       -2.6896578703        0.2454529229
 H          3.4536395707       -4.1485937298        1.1617937676
 C          4.4895841543       -2.4344955458        1.8743415142
 H          3.6685263141       -2.1562222035        2.5399158056
 H          5.1950676295       -3.0426980513        2.4446279366
 C          5.1991349789       -1.1470846838        1.4347981620
 H          5.3736195384       -0.5315233016        2.3205271405
 H          6.1595950329       -1.3833607969        0.9772577990
 H          3.8249787507       -2.9209346606       -2.0102797719
 H          5.4738637310       -3.4209507842       -2.3891368757
 H          5.4115231473       -1.0671403553       -2.5988651425
 H          6.3227725713       -1.4147447228       -1.1191224309
 O          3.5847733506        0.1377967678       -1.6977743365
 C          2.6216140310        1.0305890844       -1.2394502326
 O          1.9303176367        1.5211166872       -2.1531322223
 O          3.3609485827        0.8117278727        2.2965712605
 C          1.5484183917        2.2532154379        0.7220315241
 C          0.2078252514        1.6077249917        0.9649734745
 C         -0.4381661655        1.7371535697        2.1886039590
 C         -1.6790497273        1.1591616384        2.3940769897
 C         -2.2983314035        0.4403593479        1.3874710688
 C         -1.6609782372        0.3042719316        0.1609159573
 C         -0.4178247668        0.8857285612       -0.0421608341
 H          0.0675555654        0.7888294586       -1.0027389830
 N         -2.2773776520       -0.4330129530       -0.8672006437
 S         -3.8416209782        0.0091903061       -1.2972280953
 O         -4.0028044668       -0.4333145419       -2.6647310586
 O         -4.0809142000        1.4108986764       -1.0415307915
 C         -4.8707081480       -0.9893401279       -0.2415469318
 C         -4.6914099262       -2.3586678389       -0.2661737805
 C         -5.4909345283       -3.1525499867        0.5404383216
 C         -6.4526320504       -2.5673626004        1.3508874554
 C         -6.6225086161       -1.1914142917        1.3615054801
 C         -5.8251717631       -0.3912368885        0.5577017769
 H         -5.9167696563        0.6829826831        0.5371022754
 H         -7.3707812329       -0.7386652394        1.9919826799
 H         -7.0732374291       -3.1878649276        1.9778870082
 H         -5.3615514839       -4.2228955825        0.5349314787
 H         -3.9348567921       -2.7727561448       -0.9117667197
 H         -1.7008302630       -0.5156112148       -1.6930304159
 H         -3.2642217105       -0.0122975219        1.5412985155
 H         -2.1691896797        1.2675551133        3.3493831101
 H          0.0432885840        2.2876390146        2.9835075661
 H          1.9695585360        2.5153105816        1.7056089922
 C          1.4398815401        3.5434234893       -0.0805985312
 C          0.2293681820        3.9386179951       -0.8671871235
 C          0.5618490016        4.6595227051        0.4027553233
 H          0.9306968493        5.6721945160        0.3444218076
 H         -0.0630156850        4.4632031781        1.2609414223
 H          0.3890651622        4.4389167251       -1.8104258128
 H         -0.6247502565        3.2786283374       -0.8721348318
 H          2.3957611215        3.8301843100       -0.5080333057
