  62
        -98.94446840
 C          1.9566163253        1.4091095540       -0.0351516165
 C          2.7028053266        0.6340960367        0.8937691054
 C          3.4926857309       -0.4733334234        0.3419815246
 C          3.5089148943       -0.6659970940       -0.9890688105
 C          4.2375382463       -1.7757550011       -1.6892673952
 C          3.3339715555       -3.0039596543       -1.8688989436
 C          2.5969524163       -3.4131628515       -0.5938714378
 H          1.9990198319       -4.2956100076       -0.8328333160
 H          1.9050967827       -2.6135347563       -0.3185207529
 C          3.5129025822       -3.7206599997        0.5993424946
 H          4.5302585899       -3.8966907981        0.2481486056
 H          3.1710482637       -4.6422423176        1.0749736266
 C          3.5315143280       -2.6392816912        1.6818375160
 H          4.0335703382       -3.0494749048        2.5618725633
 H          2.5077491885       -2.3925708734        1.9742420608
 C          4.2513914595       -1.3364451015        1.3101536148
 H          5.2490866103       -1.5617206088        0.9282457015
 H          4.3580571347       -0.7423900518        2.2223141065
 H          3.9452026313       -3.8356724720       -2.2236472615
 H          2.5902819434       -2.7780833080       -2.6369841758
 H          5.1215304741       -2.0423960103       -1.1132664661
 H          4.5500295337       -1.4173340748       -2.6715499473
 O          2.8079318405        0.1104136224       -1.8510583608
 C          1.9933453491        1.1417334153       -1.4035071989
 O          1.3769165386        1.7126903701       -2.3271497778
 O          2.7081799880        0.8643093250        2.1317023913
 C          1.1268837542        2.5411350123        0.5484890924
 C         -0.3181755680        2.1387560244        0.7270544888
 C         -0.9220775540        2.1752969915        1.9783597531
 C         -2.2484645483        1.8102123010        2.1326378593
 C         -2.9947065143        1.3900496439        1.0465514582
 C         -2.3936804116        1.3328245338       -0.2048847855
 C         -1.0686363298        1.7137606968       -0.3599954900
 H         -0.6100669946        1.6726462652       -1.3369131622
 N         -3.1294029849        0.8737479675       -1.3099482320
 S         -4.0874655239       -0.4805194177       -1.1012267690
 O         -4.1344357781       -1.1213914333       -2.3966534612
 O         -5.3613141732       -0.0863454662       -0.5517409645
 C         -3.2298224577       -1.5143222805        0.0756547277
 C         -3.8647546462       -1.8903476113        1.2420245133
 C         -3.1860424643       -2.6869438975        2.1501667009
 C         -1.8887972298       -3.0914392131        1.8776093238
 C         -1.2661289743       -2.7097006719        0.6990635196
 C         -1.9395632925       -1.9131467509       -0.2125867785
 H         -1.4778644659       -1.6020166933       -1.1369365324
 H         -0.2570076852       -3.0271665642        0.4886126025
 H         -1.3568335520       -3.7081014360        2.5846827642
 H         -3.6686594654       -2.9868591778        3.0662662310
 H         -4.8732681945       -1.5509726821        1.4139422640
 H         -2.5908997847        0.8218285987       -2.1622207491
 H         -4.0306619496        1.1090911319        1.1460410500
 H         -2.7062865886        1.8504308224        3.1089328800
 H         -0.3413914456        2.4826530276        2.8354041236
 H          1.5484956368        2.7165490482        1.5472934785
 C          1.2210150130        3.8315381110       -0.2426586161
 C          0.9195885099        5.1286508584        0.4435030729
 C          2.3281184839        4.7958169937        0.0541770479
 H          2.7796488695        5.3298357066       -0.7684145711
 H          3.0246077169        4.5315786621        0.8366304307
 H          0.3995284102        5.8946800992       -0.1108609921
 H          0.6624153694        5.0933333120        1.4911806537
 H          0.9180867404        3.7265077938       -1.2763199827
