  62
        -98.93496845
 C         -1.7204845703        0.3941574183        0.4359163753
 C         -2.9175777340        0.4989477819        1.1850918253
 C         -4.1838578689        0.4588373649        0.4325052862
 C         -4.1478773341        0.3616299818       -0.9093609623
 C         -5.2583420356        0.3381360032       -1.9390608144
 C         -6.7107277268        0.1332652780       -1.5167544599
 C         -7.0271245159       -1.2594476767       -0.9718636361
 H         -8.0550762201       -1.2572968597       -0.6029322069
 H         -6.9713394546       -1.9748537812       -1.7962229164
 C         -6.1029041512       -1.7611387599        0.1347957807
 H         -6.4307720719       -2.7660370306        0.4144693121
 H         -5.0851593159       -1.8509809124       -0.2504302018
 C         -6.0806579879       -0.9106412223        1.4032013947
 H         -7.0974635251       -0.7865660601        1.7807901346
 H         -5.5090815149       -1.4582013436        2.1576832739
 C         -5.4395294218        0.4798296787        1.2558777785
 H         -5.1457863896        0.8237727282        2.2520935111
 H         -6.1488030457        1.2019625357        0.8585297433
 H         -7.0075399836        0.8988097589       -0.8058582208
 H         -7.3192406943        0.2820446242       -2.4129718228
 H         -5.1842595228        1.2910710309       -2.4746063648
 H         -4.9816163468       -0.4394722128       -2.6581597173
 O         -2.9675162220        0.3148469240       -1.5927006986
 C         -1.7343290399        0.3272573332       -0.9568218819
 O         -0.7664984279        0.2783560614       -1.7370877285
 O         -2.9305079458        0.6333590707        2.4382446970
 C         -0.4067957277        0.4297478423        1.1945062689
 C          0.5504203688        1.3967456113        0.5450762155
 C          0.1474653538        2.7183985710        0.3657515797
 C          0.9843383654        3.6383062063       -0.2329124788
 C          2.2546909216        3.2686666631       -0.6409543965
 C          2.6709623802        1.9576698262       -0.4563644489
 C          1.8179856420        1.0295469773        0.1252571434
 H          2.1542380925        0.0123458599        0.2312601716
 N          3.9505985083        1.5402945318       -0.8555846159
 S          4.8454522692        0.5859580968        0.1887448241
 O          4.5465843559        0.8886062322        1.5695271681
 O          6.2202674482        0.7834494622       -0.2201762101
 C          4.3748941071       -1.0888488762       -0.1867347485
 C          4.1283624514       -1.9679762695        0.8490952692
 C          3.8085316028       -3.2833317568        0.5510500408
 C          3.7427907023       -3.6941090945       -0.7717098783
 C          3.9931553769       -2.7982165417       -1.8001348942
 C          4.3165279243       -1.4828107975       -1.5086376740
 H          4.5179047346       -0.7600668554       -2.2814983609
 H          3.9366186124       -3.1209789135       -2.8272093453
 H          3.4910883134       -4.7175116280       -1.0017213673
 H          3.6109112797       -3.9805249071        1.3499393110
 H          4.1816952590       -1.6029948719        1.8625754586
 H          4.5187429536        2.2611309665       -1.2764714118
 H          2.9143259912        3.9879908736       -1.1027302651
 H          0.6516706107        4.6557130205       -0.3754194543
 H         -0.8414680842        3.0111035017        0.6928092743
 H         -0.6745652795        0.8399245552        2.1835207505
 C          0.2041747169       -0.9408777755        1.4458124453
 C         -0.6528797394       -2.1676100776        1.5261249927
 C          0.2870181457       -1.9851391317        0.3742529252
 H          1.1720594693       -2.6026978852        0.3287876069
 H         -0.1214462600       -1.7374602306       -0.5925596342
 H         -0.4159521848       -2.9092155654        2.2740146530
 H         -1.7118710770       -2.0507411246        1.3471292903
 H          1.0361654035       -0.8900554358        2.1425847610
