  62
        -98.94744443
 C          0.8375756297        1.1446787604        0.5983471304
 C          1.3487629399        0.8383052205       -0.6857769295
 C          2.2492612899       -0.3192526295       -0.7499034195
 C          2.5016498195       -1.0331772297        0.3617023905
 C          3.4224942094       -2.2190515098        0.4591655905
 C          4.8999343794       -1.8418224099        0.6403066009
 C          5.5873298697       -1.2841740898       -0.6068263289
 H          6.6601291897       -1.2754808099       -0.4037758786
 H          5.4207615199       -1.9603974897       -1.4457632090
 C          5.1485296799        0.1351899303       -0.9931016988
 H          4.6544554998        0.6090169602       -0.1416378888
 H          6.0296457800        0.7374667802       -1.2263134785
 C          4.2191198802        0.2045646905       -2.2050129890
 H          3.9439888803        1.2500748706       -2.3652626389
 H          4.7495800404       -0.1436770994       -3.0940397789
 C          2.9257458801       -0.6077508094       -2.0558657094
 H          3.1371517901       -1.6721553794       -2.1494152195
 H          2.2416523903       -0.3123471892       -2.8549009195
 H          4.9800146393       -1.1182746300        1.4548824910
 H          5.4316598593       -2.7457342300        0.9464704109
 H          3.1060283792       -2.7903409999        1.3335551004
 H          3.3156474796       -2.8417908997       -0.4285756696
 O          1.9262868593       -0.7505833198        1.5614369504
 C          1.0984771994        0.3497758802        1.7130858003
 O          0.6594950691        0.5081409401        2.8715599603
 O          1.0777334402        1.5003108707       -1.7205371995
 C         -0.0465433703        2.3639785705        0.7819818604
 C         -1.2465997401        2.2824773707       -0.1293597899
 C         -1.7167281498        3.3536320808       -0.8777266599
 C         -2.8298283697        3.2041016010       -1.6867652001
 C         -3.5008088097        1.9974800611       -1.7565022405
 C         -3.0423550600        0.9208679409       -1.0046774305
 C         -1.9248014502        1.0724908607       -0.2014365002
 H         -1.5713863304        0.2373328806        0.3858854797
 N         -3.6775444201       -0.3259821890       -1.0712668208
 S         -3.6739581305       -1.3635814892        0.2340092690
 O         -4.7208107405       -2.3171301990       -0.0695251313
 O         -3.8147957807       -0.6552737493        1.4851337391
 C         -2.1064196305       -2.2015562593        0.1537372193
 C         -1.6812255503       -2.6919008892       -1.0647953707
 C         -0.4947980203       -3.4044253792       -1.1209179205
 C          0.2366599494       -3.6218337195        0.0365242296
 C         -0.2005066008       -3.1180948296        1.2512696896
 C         -1.3831115108       -2.3989535895        1.3127307094
 H         -1.7479557309       -1.9772904596        2.2368524494
 H          0.3729622890       -3.2729439898        2.1514328397
 H          1.1516239494       -4.1905470195       -0.0055861903
 H         -0.1461437101       -3.7918557891       -2.0645669005
 H         -2.2801394801       -2.5101918890       -1.9415517808
 H         -4.5381306500       -0.3541955489       -1.5971322810
 H         -4.3683801496        1.8834370412       -2.3882651507
 H         -3.1822279895        4.0416049511       -2.2696038201
 H         -1.2095866198        4.3034048908       -0.8336147396
 H         -0.4093994405        2.3268294503        1.8204235403
 C          0.7707269399        3.6261751004        0.5943855307
 C          0.4151615898        4.8774507303        1.3378332008
 C          1.6367820397        4.0990704802        1.7215737310
 H          2.6073285697        4.5117078101        1.4901648712
 H          1.6134486394        3.5252786901        2.6370773309
 H          0.5501470900        5.8281479204        0.8443435610
 H         -0.4364575603        4.8405358403        2.0005137606
 H          1.1634909301        3.7201430005       -0.4116777792
