  62
        -98.93934641
 C          1.8498320807        1.3427393273        0.3308954949
 C          1.6658588478        0.1110492497       -0.3388921657
 C          2.6620648927       -0.9386548168       -0.0526879981
 C          3.6568922615       -0.6811148976        0.8137597594
 C          4.7953935950       -1.5866367752        1.1941691624
 C          6.0266015266       -1.3080982144        0.3152336463
 C          6.0666987537       -2.0827971346       -1.0015533510
 H          6.9094117334       -1.6967540309       -1.5797644956
 H          6.2691302292       -3.1353654391       -0.7923397197
 C          4.8000494659       -1.9891382417       -1.8563856381
 H          4.4373286765       -0.9596421081       -1.8651365204
 H          5.0704021353       -2.2447312341       -2.8828943600
 C          3.6840320280       -2.9341569808       -1.3870492183
 H          3.3232280482       -3.5157828481       -2.2379747843
 H          4.1003223093       -3.6499232385       -0.6784460836
 C          2.4575840275       -2.2469523152       -0.7667842976
 H          1.9701044222       -2.9455457503       -0.0788205755
 H          1.7342110865       -2.0180087478       -1.5559161401
 H          6.0575107699       -0.2344194552        0.1122845663
 H          6.9259453048       -1.5582777910        0.8816821902
 H          5.0480748078       -1.3513002011        2.2301100988
 H          4.4971515554       -2.6290088204        1.1341784864
 O          3.7882003561        0.5174173994        1.4462769273
 C          2.8973813246        1.5505344693        1.2286948752
 O          3.1362968743        2.5862995068        1.8816753869
 O          0.7257709058       -0.1079790177       -1.1464958104
 C          0.8764707414        2.4895140023        0.1138343770
 C         -0.4951971592        2.0386408113        0.5512984107
 C         -0.7072375955        1.7621205267        1.8999382825
 C         -1.9295898074        1.2949685671        2.3428140236
 C         -2.9642233320        1.0777324754        1.4485293559
 C         -2.7576470270        1.3392959765        0.1013281528
 C         -1.5344873488        1.8300780704       -0.3391187307
 H         -1.3927732622        2.0246518929       -1.3901117256
 N         -3.7892969583        1.0931921213       -0.8190077052
 S         -4.6935153528       -0.3006016603       -0.6345374232
 O         -5.1486402876       -0.6338259285       -1.9668797525
 O         -5.7352476679       -0.0726475771        0.3374705962
 C         -3.5798963983       -1.5573053833       -0.0257023099
 C         -3.9711735981       -2.3308508978        1.0490007927
 C         -3.1184306306       -3.3193667285        1.5124358256
 C         -1.8912173096       -3.5148531497        0.8978295001
 C         -1.5134749478       -2.7304020354       -0.1804448485
 C         -2.3635287064       -1.7432872855       -0.6512421886
 H         -2.0691419261       -1.1203162217       -1.4800685300
 H         -0.5549896311       -2.8647234660       -0.6550541368
 H         -1.2245105468       -4.2813296150        1.2607645215
 H         -3.4108280524       -3.9303315575        2.3513380159
 H         -4.9301731560       -2.1385568534        1.5025040795
 H         -3.5203513135        1.2291455822       -1.7825034084
 H         -3.9239428452        0.7113879970        1.7755613478
 H         -2.0796181937        1.0909510172        3.3920624904
 H          0.1075063307        1.9139400048        2.5950777996
 H          1.2031082418        3.2955409563        0.7850316699
 C          0.9419452321        2.9881899045       -1.3141694081
 C          0.4250032290        4.3539144189       -1.6501074512
 C          1.8996706961        4.0871482674       -1.6585027485
 H          2.4116170046        4.0460082293       -2.6083627500
 H          2.4999462349        4.4941272840       -0.8577811002
 H         -0.0747067851        4.5008180387       -2.5957548415
 H          0.0214793992        4.9463566254       -0.8429706303
 H          0.8132831202        2.1990425552       -2.0455805834
