  62
        -98.93471674
 C         -2.3391370817       -1.0855123963       -0.5796978153
 C         -3.4193863436       -0.6267548289        0.2183376069
 C         -3.9970685584        0.6820688051       -0.1243104346
 C         -3.4826381225        1.3757146017       -1.1537582015
 C         -3.9283230255        2.7026838821       -1.7156654714
 C         -4.3163858491        3.8017517465       -0.7185797325
 C         -3.5050644707        3.8088894658        0.5853395113
 H         -2.6436063742        3.1435855654        0.4968450650
 H         -3.1185646905        4.8151775499        0.7581927047
 C         -4.3355771162        3.4091344345        1.8072674602
 H         -3.8341218063        3.7756228175        2.7062806135
 H         -5.3066616657        3.9055772932        1.7482773063
 C         -4.5514006886        1.9075053165        1.9909281788
 H         -3.6076395298        1.4300615349        2.2700433824
 H         -5.2402003761        1.7669154939        2.8273918035
 C         -5.1068700421        1.1632923511        0.7654926316
 H         -5.8214584871        1.7766678572        0.2222988145
 H         -5.6174949289        0.2646283738        1.1218943746
 H         -4.1846083935        4.7545259712       -1.2341634119
 H         -5.3751270892        3.7191993260       -0.4774853934
 H         -3.0917434135        3.0452534617       -2.3296337322
 H         -4.7693446584        2.5191901756       -2.3908873214
 O         -2.4388458626        0.9038357930       -1.8899097953
 C         -1.8337008335       -0.3141585041       -1.6246342214
 O         -0.8845890973       -0.5689116779       -2.3946073212
 O         -3.8959482035       -1.2969600567        1.1726394502
 C         -1.7452237389       -2.4360420671       -0.2113814379
 C         -0.4952546000       -2.2428600220        0.6139078907
 C         -0.4745763040       -2.5679853688        1.9651018328
 C          0.6606455936       -2.3481954996        2.7260839141
 C          1.7959740719       -1.7979485185        2.1582593405
 C          1.7803876970       -1.4609717602        0.8112397840
 C          0.6465618785       -1.6936141290        0.0476619833
 H          0.6358890175       -1.4109013654       -0.9948200791
 N          2.9300571642       -0.8816006810        0.2181942112
 S          3.3019819230        0.6719594651        0.7769867818
 O          3.5582433247        0.5985837231        2.1926556390
 O          2.2814554917        1.6138934968        0.3642468097
 C          4.8215850617        0.9834677182       -0.0989197432
 C          4.7889433422        1.6948473718       -1.2825314055
 C          5.9734226066        1.9035950186       -1.9717448401
 C          7.1622942159        1.3964396730       -1.4695582668
 C          7.1783403356        0.6826702036       -0.2803783170
 C          5.9979116424        0.4715429409        0.4139076430
 H          5.9622902725       -0.0691238770        1.3449572435
 H          8.1051636592        0.2913828910        0.1069835957
 H          8.0821168972        1.5607250411       -2.0083078027
 H          5.9632056681        2.4595113969       -2.8955663973
 H          3.8425990170        2.0771890646       -1.6317081711
 H          2.8069561317       -0.8149551198       -0.7856260931
 H          2.6776911399       -1.6011166251        2.7451054696
 H          0.6607950551       -2.6048991081        3.7747155450
 H         -1.3647146841       -2.9761062759        2.4218658465
 H         -2.4978438363       -2.9132540880        0.4305656303
 C         -1.4937667702       -3.3338929720       -1.4061222254
 C         -1.3465939065       -4.8085550738       -1.1852765755
 C         -2.5717712749       -4.2700339658       -1.8595458785
 H         -2.6957333143       -4.4360911449       -2.9190976249
 H         -3.4998899099       -4.2687939410       -1.3068007856
 H         -0.6264821985       -5.3483309998       -1.7805865961
 H         -1.4440821419       -5.1734688685       -0.1740847047
 H         -0.8832705231       -2.8749204106       -2.1724760202
