  62
        -98.93629737
 C         -0.7134943785       -1.3753803271       -0.3779696909
 C         -1.6397669280       -1.2888898099        0.6906071505
 C         -2.7221329767       -0.2965783326        0.5710327767
 C         -2.7763605686        0.4802204997       -0.5262237428
 C         -3.7884627069        1.5146814572       -0.9745869581
 C         -5.0697134086        1.7452698565       -0.1779701637
 C         -6.1011921397        0.6226522428       -0.3009571810
 H         -6.9078020491        0.8137304148        0.4099267218
 H         -6.5296663579        0.6583080575       -1.3058906897
 C         -5.5686368802       -0.7911714501       -0.0816975232
 H         -4.7927925534       -1.0106068984       -0.8179960620
 H         -6.3900095512       -1.4902832782       -0.2616306243
 C         -5.0186251181       -1.0702983939        1.3147031358
 H         -4.7934732153       -2.1385832632        1.3750701899
 H         -5.7824513308       -0.8473631418        2.0624200589
 C         -3.7368947115       -0.3046720442        1.6787195458
 H         -3.9635107787        0.7073382487        2.0031396772
 H         -3.2645843728       -0.8229744155        2.5181691109
 H         -5.5279765895        2.6546034980       -0.5759560464
 H         -4.8350914680        1.9412425866        0.8638414873
 H         -4.0527101372        1.2463440532       -2.0030387308
 H         -3.2426069423        2.4597069550       -1.0395659821
 O         -1.8041108922        0.4306421133       -1.4831707049
 C         -0.7557272096       -0.4804219738       -1.4458825658
 O          0.0248059503       -0.3785201274       -2.4091376982
 O         -1.5796616347       -2.0384166251        1.7016000261
 C          0.3139261262       -2.4902579702       -0.2876405776
 C          1.5193966830       -2.0589541405        0.5054456261
 C          1.9760427413       -2.8287585750        1.5689506763
 C          3.0688660814       -2.4223465967        2.3132065467
 C          3.7174069261       -1.2384023115        2.0156379561
 C          3.2684047055       -0.4606891027        0.9521893464
 C          2.1783139377       -0.8754945371        0.1995092871
 H          1.8414004487       -0.2760348272       -0.6330504460
 N          3.9138466922        0.7411477490        0.6476248914
 S          3.2802740453        1.9087613111       -0.3453914954
 O          3.3230910601        1.4765527664       -1.7189115898
 O          4.0708149468        3.0844406406       -0.0395394190
 C          1.5968680296        2.2156393605        0.1611873614
 C          1.1758332131        1.9613741590        1.4509278163
 C         -0.1250386403        2.2819520298        1.8052330832
 C         -0.9703130348        2.8730848061        0.8802724778
 C         -0.5272705164        3.1353515862       -0.4064516765
 C          0.7636161559        2.7948229819       -0.7735652775
 H          1.1372341341        2.9555622913       -1.7723898291
 H         -1.1776825510        3.5993762808       -1.1309150687
 H         -1.9784792655        3.1294764716        1.1653607542
 H         -0.4739955139        2.0696676272        2.8030444653
 H          1.8465667758        1.5091801230        2.1632117551
 H          4.5622271334        1.0965484260        1.3326296348
 H          4.5645127442       -0.9115588498        2.5984794254
 H          3.4140424346       -3.0273312570        3.1374901106
 H          1.4571027172       -3.7417666097        1.8197976339
 H         -0.1861580368       -3.2806121122        0.2963332703
 C          0.6733611138       -3.0956603950       -1.6362638364
 C          1.9764933251       -2.8657756987       -2.3342338984
 C          1.6872289656       -4.1990039919       -1.7161513813
 H          1.4895840457       -5.0391631773       -2.3644035614
 H          2.2174804184       -4.4520174439       -0.8103635767
 H          1.9541960789       -2.7697948900       -3.4092607139
 H          2.7073701085       -2.2251781052       -1.8659575792
 H         -0.1974203744       -3.1891863926       -2.2780544850
