  62
        -98.93968281
 C         -2.6095664290       -1.3411037934        0.2811765461
 C         -2.8517463097       -0.4980729780       -0.8313174714
 C         -3.9204718517        0.5005089198       -0.6599783467
 C         -4.5911858960        0.5665527620        0.5035533810
 C         -5.6591713217        1.5699063287        0.8269185353
 C         -5.0649540796        2.8220223140        1.4869018156
 C         -3.8631609302        3.4017037890        0.7409309745
 H         -3.0355552740        2.6900704600        0.7903448294
 H         -3.5478393394        4.2982450546        1.2788900793
 C         -4.1389763231        3.7569130523       -0.7268447216
 H         -3.7092896541        4.7386988668       -0.9367623003
 H         -5.2139187617        3.8315834670       -0.8947336049
 C         -3.5357846346        2.7818334662       -1.7396852945
 H         -2.4757022465        2.6333068762       -1.5178909439
 H         -3.6004384022        3.2379789572       -2.7312852792
 C         -4.2084765643        1.4057763441       -1.8251002226
 H         -3.8096820246        0.8960295365       -2.7072965535
 H         -5.2848884467        1.5306424974       -1.9587517587
 H         -4.7464543274        2.5618858426        2.4988944976
 H         -5.8488108341        3.5779273577        1.5606873850
 H         -6.1836957803        1.8418552193       -0.0870152250
 H         -6.3664788010        1.1071770874        1.5171518777
 O         -4.3328314026       -0.2586880227        1.5492188843
 C         -3.3433692130       -1.2216010125        1.4662250741
 O         -3.2156262820       -1.9108752652        2.4973830320
 H         -0.2435440674       -0.3819721354       -0.8646089758
 C          0.3370071533       -0.8376847434       -0.0755973066
 C         -0.1949066198       -1.9135422334        0.6222983850
 C          0.5709688864       -2.5009734886        1.6219962845
 C          1.8373197083       -2.0227723734        1.9111694268
 C          2.3642683779       -0.9525752649        1.2107836576
 C          1.6066171303       -0.3576634482        0.2102882437
 N          2.1343394263        0.7338741623       -0.5063301873
 S          3.6102247445        0.4886303512       -1.2749298002
 O          3.6451365962        1.4503521292       -2.3546319602
 O          3.7875291424       -0.8976109143       -1.6419981559
 C          4.8125474922        0.9529383760       -0.0467204778
 C          4.7205313761        2.2133062949        0.5108098834
 C          5.6549494396        2.5939041766        1.4606267352
 C          6.6612808017        1.7144095888        1.8319793984
 C          6.7418261026        0.4539016643        1.2602068419
 C          5.8094804892        0.0662810315        0.3102775130
 H          5.8275984992       -0.9054976402       -0.1566388425
 H          7.5248573267       -0.2280864021        1.5502935070
 H          7.3869793266        2.0134466251        2.5717504491
 H          5.5954858921        3.5730352467        1.9079785366
 H          3.9247393467        2.8660345218        0.1925735551
 H          1.4718223860        1.1333002459       -1.1567101142
 H          3.3504419519       -0.5772466325        1.4303463110
 H          2.4208841327       -2.4881416148        2.6906490603
 H          0.1632251330       -3.3323969100        2.1782847288
 C         -1.5630511696       -2.4446102109        0.2799096624
 H         -1.8663784845       -3.1231021147        1.0924658079
 C         -1.5721364102       -3.2570877539       -1.0102803577
 C         -0.4509122025       -3.2707152910       -2.0018064208
 C         -0.6970502319       -4.4688141952       -1.1378614803
 H         -1.1065970436       -5.3604840087       -1.5876344875
 H          0.0065951799       -4.6574158927       -0.3409251527
 H          0.4253383428       -2.6714614790       -1.8063691862
 H         -0.7122955719       -3.3192330283       -3.0482406707
 H         -2.5719107337       -3.3381811296       -1.4253259650
 O         -2.2206491345       -0.5544061210       -1.9197785845
