  62
        -98.94061859
 C         -2.3541286704       -1.0428168063       -0.0888733715
 C         -2.0687910621        0.2815492902       -0.5010161344
 C         -2.8458112745        1.3419242475        0.1594956087
 C         -3.7303133564        1.0199547494        1.1198238725
 C         -4.6216054316        1.9943981810        1.8323855111
 C         -5.9662768815        2.1497653288        1.1077295164
 C         -5.8340559123        2.4004329267       -0.3944617219
 H         -5.4077360482        1.5128362802       -0.8674114214
 H         -6.8432676903        2.5238844686       -0.7930872982
 C         -4.9858966981        3.6260588218       -0.7614321934
 H         -5.5039210928        4.1899442737       -1.5399895094
 H         -4.8893126839        4.2823356310        0.1042214250
 C         -3.5940937653        3.2949802325       -1.3030959198
 H         -3.6800783222        2.5657012321       -2.1124312903
 H         -3.1687434203        4.2080115691       -1.7280478672
 C         -2.5894923900        2.7576989423       -0.2758020770
 H         -1.6013823742        2.7526866179       -0.7452283356
 H         -2.5521663944        3.4242371425        0.5883463508
 H         -6.5132572709        2.9736313754        1.5696722619
 H         -6.5444370566        1.2342409789        1.2524111143
 H         -4.8030884840        1.6189557561        2.8409179942
 H         -4.1186277796        2.9571602444        1.8998175187
 O         -3.9489883561       -0.2581778254        1.5198585097
 C         -3.2787855098       -1.3120355264        0.9259265290
 O         -3.5902590519       -2.4322508243        1.3775503936
 H          0.5452549106       -0.7566741246       -1.1497095175
 C          0.7421088479       -1.5429558142       -0.4362446408
 C         -0.2822713747       -2.4089911100       -0.0818970216
 C         -0.0239148355       -3.3877421169        0.8709748165
 C          1.2290660883       -3.4955140001        1.4483494058
 C          2.2490907066       -2.6318084022        1.0901556601
 C          1.9962008477       -1.6426401226        0.1489698922
 N          3.0241839578       -0.7468921313       -0.2296888352
 S          3.6535007280        0.2291421193        0.9989844041
 O          4.2791411755       -0.6163710206        1.9836376614
 O          2.6388190155        1.1364073788        1.4941620984
 C          4.8982485607        1.1250727171        0.0924090469
 C          6.1127858518        0.5097740233       -0.1427225311
 C          7.0745357720        1.1854590675       -0.8764013542
 C          6.8066646171        2.4572510978       -1.3608600120
 C          5.5830603962        3.0618894541       -1.1160543508
 C          4.6160130721        2.3905469056       -0.3841055833
 H          3.6533483301        2.8245789564       -0.1643935331
 H          5.3778218866        4.0512859421       -1.4921855933
 H          7.5566243213        2.9819952539       -1.9313647924
 H          8.0277475286        0.7197523379       -1.0679612998
 H          6.2782454909       -0.4753913101        0.2603963110
 H          2.6977500942       -0.1335119788       -0.9672842200
 H          3.2227326653       -2.6953521970        1.5471046500
 H          1.4143776524       -4.2603077616        2.1876384099
 H         -0.8214971561       -4.0522921230        1.1715781472
 C         -1.6623553005       -2.2645448880       -0.6780652222
 H         -2.2578410475       -3.1263796046       -0.3487958842
 C         -1.6333483785       -2.2546915466       -2.1936103074
 C         -1.4025981146       -3.5434755504       -2.9214067735
 C         -2.7549653957       -2.8982825827       -2.9494810208
 H         -3.0895742134       -2.4365162295       -3.8663204493
 H         -3.5494191771       -3.3521724248       -2.3747781097
 H         -0.8062659953       -3.5276632119       -3.8205893136
 H         -1.2798987226       -4.4363529103       -2.3271294025
 H         -1.2080025900       -1.3537242449       -2.6146147980
 O         -1.2192093247        0.5903346616       -1.3796892797
