  62
        -98.94090551
 C         -2.3898169199       -1.2573352567        0.1325182881
 C         -2.2792055613        0.1533295508        0.0401157172
 C         -3.4020788969        0.9180927802        0.6051866582
 C         -4.4228552715        0.2806432533        1.2038957700
 C         -5.6273418442        0.9247126219        1.8347570052
 C         -6.7446937863        1.2655476341        0.8391379246
 C         -6.4549040872        2.4491733340       -0.0848184815
 H         -7.3956081042        2.7125483317       -0.5723966704
 H         -6.1461409059        3.3078629671        0.5121888073
 C         -5.4020528553        2.1670245885       -1.1657640143
 H         -5.7584577989        2.5409611376       -2.1282183317
 H         -5.2687591438        1.0879009570       -1.2719094088
 C         -4.0396118942        2.8108334239       -0.9069833325
 H         -3.3622499340        2.5192300832       -1.7141319926
 H         -4.1374622528        3.8985237497       -0.9294337863
 C         -3.3922674570        2.4061432966        0.4241176262
 H         -2.3491655821        2.7332799755        0.4137340267
 H         -3.9025239420        2.8944334911        1.2541466788
 H         -6.9600773738        0.3787535987        0.2385390834
 H         -7.6394340390        1.4977946795        1.4211579772
 H         -5.3242549928        1.8266918995        2.3671681346
 H         -6.0188411261        0.2077006113        2.5595895410
 O         -4.4642713992       -1.0727405585        1.3233006126
 C         -3.4652187731       -1.8673235954        0.7869940716
 O         -3.6415783097       -3.0894306480        0.9624371525
 O         -1.3130806185        0.7632572808       -0.4871737268
 C         -1.3284271491       -2.1986290264       -0.4146468133
 C          0.0353914838       -1.7592583746        0.0546624943
 C          0.4231018840       -2.0310057650        1.3631685442
 C          1.6511140512       -1.6087522825        1.8362384245
 C          2.5134168865       -0.8997061413        1.0180427432
 C          2.1256672074       -0.6043842846       -0.2815740202
 C          0.9008446109       -1.0505155255       -0.7618349969
 H          0.6023145540       -0.8031631522       -1.7686369947
 N          2.9867040940        0.1193546248       -1.1211414122
 S          3.8497134279        1.4185223217       -0.5075085232
 O          3.1625940361        2.0728584267        0.5812345531
 O          4.1575671534        2.2377953939       -1.6599268548
 C          5.3566143511        0.6718564615        0.0830470212
 C          6.0627718054       -0.1440694120       -0.7791268882
 C          7.2411182025       -0.7243272131       -0.3378233634
 C          7.6937261447       -0.4779385848        0.9498351839
 C          6.9762011336        0.3470680489        1.8020881170
 C          5.7960323249        0.9297232822        1.3666743390
 H          5.2026318693        1.5737547910        1.9964578628
 H          7.3295715735        0.5386409690        2.8025847140
 H          8.6109262985       -0.9312121628        1.2913147962
 H          7.8019411971       -1.3663731855       -0.9978209929
 H          5.6794192467       -0.3080326484       -1.7722323659
 H          2.5788631318        0.3493679893       -2.0157698000
 H          3.4660190404       -0.5549130301        1.3853842762
 H          1.9403746845       -1.8293638278        2.8526206507
 H         -0.2576158887       -2.5698785021        2.0083116546
 H         -1.5481222529       -3.1719545132        0.0521189229
 C         -1.3970937815       -2.4161416936       -1.9194728095
 C         -2.7235881577       -2.5616595929       -2.6022847429
 C         -1.8639978032       -1.3673645007       -2.8816119674
 H         -1.3743646599       -1.3039128774       -3.8428979779
 H         -2.1638363382       -0.4107526836       -2.4840941374
 H         -2.8305259112       -3.3130885588       -3.3698559906
 H         -3.6087256901       -2.4248567116       -1.9977564707
 H         -0.6027993843       -3.0710523736       -2.2649742850
