  62
        -98.93594135
 C         -2.3740712351       -1.4683741780        0.1608459718
 C         -2.4355496602       -0.2776436965       -0.5981114519
 C         -3.5112607181        0.6731054442       -0.2503015025
 C         -4.3702240963        0.3608647404        0.7362787871
 C         -5.5341995388        1.1582501583        1.2683911624
 C         -6.4420600833        1.8338687557        0.2293019651
 C         -6.3058247472        3.3571819186        0.2011443964
 H         -6.2056590095        3.7162762841        1.2274729541
 H         -7.2258989524        3.7832191380       -0.2049494585
 C         -5.1430540479        3.8896183772       -0.6345233354
 H         -5.0726868491        4.9653130368       -0.4568512255
 H         -5.3653337049        3.7497959660       -1.6946871602
 C         -3.7822100613        3.2550322221       -0.3401167863
 H         -3.6493782798        3.1128547742        0.7318840572
 H         -3.0084274552        3.9547342069       -0.6641736579
 C         -3.5490163807        1.9284843629       -1.0785313154
 H         -2.5766754298        1.9565958803       -1.5808596002
 H         -4.2929187528        1.8069459146       -1.8714543286
 H         -7.4753406895        1.5939133691        0.4849309502
 H         -6.2490161695        1.4177023497       -0.7581479787
 H         -6.1143816541        0.4478002671        1.8615970803
 H         -5.1502874595        1.9057075524        1.9672167059
 O         -4.2665406809       -0.7983470331        1.4475910933
 C         -3.2737511010       -1.7242661478        1.1970037825
 O         -3.2987661676       -2.7216229028        1.9449842503
 H          0.6400863457       -1.3506496168       -1.6591875777
 C          0.8941609984       -1.3405472646       -0.6113810036
 C          0.0319955932       -1.9072540247        0.3129013960
 C          0.3694957217       -1.8510215033        1.6627255730
 C          1.5431185205       -1.2470167662        2.0712602778
 C          2.4006907260       -0.6778116086        1.1450155491
 C          2.0639566310       -0.7129382010       -0.2006652640
 N          2.9222067544       -0.1344768072       -1.1501418056
 S          3.5875552906        1.3711754863       -0.8296323837
 O          2.7305213862        2.1774817766        0.0084239205
 O          3.9186917375        1.9195723149       -2.1270833877
 C          5.0979401880        0.9844114568        0.0333419814
 C          5.4071757447        1.6436194929        1.2069367950
 C          6.5932279923        1.3372837977        1.8561515612
 C          7.4451833660        0.3825320751        1.3227237014
 C          7.1215455887       -0.2685862130        0.1415936751
 C          5.9385899871        0.0344989271       -0.5132406721
 H          5.6518311367       -0.4481654077       -1.4324343232
 H          7.7858049851       -1.0113409996       -0.2699414361
 H          8.3662180429        0.1442474815        1.8308947952
 H          6.8460464525        1.8431506015        2.7741547333
 H          4.7103838432        2.3727431140        1.5892138054
 H          2.5627902298       -0.1735492955       -2.0932517501
 H          3.3108387818       -0.1932129381        1.4585527786
 H          1.7938601732       -1.2146543625        3.1207294471
 H         -0.3116067326       -2.2764615531        2.3870626073
 C         -1.2932789724       -2.5100358822       -0.0842300258
 H         -1.5118922558       -3.3352221361        0.6063992474
 C         -1.3324073957       -3.0392795715       -1.5023655399
 C         -0.5933103182       -4.2993254453       -1.8357992836
 C         -2.0910895796       -4.2981127435       -1.7912544240
 H         -2.6363356960       -4.3681386801       -2.7206204781
 H         -2.5796262902       -4.7880403828       -0.9616377575
 H         -0.0631155614       -4.7909665558       -1.0343571012
 H         -0.1080088627       -4.3745464069       -2.7969083869
 H         -1.3713639177       -2.2585838524       -2.2517587388
 O         -1.6369296673       -0.0057191203       -1.5344533134
