  62
        -98.93145271
 C          1.4705912614        1.6423636900        0.4781638295
 C          1.6503519109        0.2910318799        0.8645809193
 C          2.8547989707       -0.3968469505        0.3661380192
 C          3.6909667710        0.2693560593       -0.4497439806
 C          4.9840074409       -0.1985263610       -1.0692343905
 C          5.0029723804       -1.6200415709       -1.6517948708
 C          5.8340624199       -2.6062939214       -0.8286437309
 H          6.1609547497       -3.4178232314       -1.4827752011
 H          6.7310466601       -2.0937334818       -0.4746144708
 C          5.1099395596       -3.2354416314        0.3603374689
 H          4.3654325493       -3.9456902110       -0.0057194013
 H          5.8472256393       -3.8041479418        0.9318936988
 C          4.4165958099       -2.2468213513        1.2999614590
 H          5.0417537402       -1.3683023016        1.4564306692
 H          4.3023000696       -2.7326841014        2.2712603089
 C          3.0206505301       -1.8208845007        0.8202722390
 H          2.6852128499       -2.4873419004        0.0211665388
 H          2.2994043500       -1.9326417505        1.6355046389
 H          3.9848180802       -1.9870374805       -1.7699118210
 H          5.4422547805       -1.5629668509       -2.6491889208
 H          5.1981791512        0.5273534990       -1.8571391604
 H          5.7791352408       -0.0926365715       -0.3265909304
 O          3.4624019915        1.5602277195       -0.8212043003
 C          2.3570607018        2.2798537198       -0.3886327103
 O          2.3033236623        3.4357352600       -0.8454846001
 O          0.8374183506       -0.3132704900        1.6139854991
 C          0.2263274217        2.3293657104        1.0129566995
 C         -0.9299059384        2.0036961610        0.1038407594
 C         -0.8754905481        2.2960150413       -1.2558629606
 C         -1.9202190882        1.9442192918       -2.0909550607
 C         -3.0306512685        1.2832419822       -1.5929187210
 C         -3.0847468088        0.9714056019       -0.2414169410
 C         -2.0422694887        1.3407993914        0.5990618391
 H         -2.0843436289        1.0841417412        1.6487338991
 N         -4.1991432491        0.2668484823        0.2630889887
 S         -4.4100394296       -1.2954883675       -0.3084932116
 O         -4.6630284495       -1.2416698172       -1.7253228216
 O         -5.4554152299       -1.8659460173        0.5094634582
 C         -2.8616990300       -2.1197258082        0.0122659284
 C         -2.7288787404       -2.8612521585        1.1689508982
 C         -1.5102965706       -3.4583014890        1.4457578782
 C         -0.4473404305       -3.2939890593        0.5720083684
 C         -0.5943734201       -2.5384758690       -0.5799772715
 C         -1.8120136298       -1.9439773684       -0.8669604215
 H         -1.9612727795       -1.3536042382       -1.7566913914
 H          0.2368386600       -2.4006422092       -1.2534661614
 H          0.5027796093       -3.7533739397        0.7932618584
 H         -1.3892299709       -4.0427201292        2.3436965881
 H         -3.5818476105       -2.9649989283        1.8205884781
 H         -4.2291209392        0.2488853621        1.2734692387
 H         -3.8408920086        0.9801193026       -2.2358830911
 H         -1.8685697080        2.1819894020       -3.1429461007
 H         -0.0009757679        2.7945495910       -1.6478874004
 H          0.0297697014        1.8399020603        1.9800620894
 C          0.4005271122        3.8152317703        1.2842608198
 C         -0.3275524373        4.8887103407        0.5376442100
 C         -0.7054940376        4.5779689906        1.9527573599
 H         -0.4547016673        5.2863523203        2.7275730900
 H         -1.6377973778        4.0572896609        2.1143872697
 H          0.2094884631        5.8014374405        0.3293705602
 H         -1.0107388473        4.5998598311       -0.2453053401
 H          1.4113771223        4.0553917398        1.5955952500
