  62
        -98.94796800
 C         -1.2524956424       -0.7904766186        0.4089230270
 C         -2.0858796739       -0.5963674112       -0.7184237588
 C         -3.0287797552        0.5252422952       -0.6253021968
 C         -3.0104813880        1.3292949683        0.4530742437
 C         -3.8882359604        2.5308752210        0.6770374457
 C         -5.2716686972        2.1970051096        1.2522578406
 C         -6.2407075048        1.5335835442        0.2727544297
 H         -7.2290515880        1.5562100986        0.7360764310
 H         -6.2950457021        2.1280034272       -0.6397868786
 C         -5.8920858328        0.0801106925       -0.0768523619
 H         -5.1899010150       -0.3134368213        0.6615595693
 H         -6.7937590576       -0.5337833627       -0.0213124225
 C         -5.2989667703       -0.1112618859       -1.4727375122
 H         -5.0565471421       -1.1692316924       -1.6002077034
 H         -6.0416712723        0.1577654577       -2.2270038020
 C         -4.0231494923        0.7005609124       -1.7331114865
 H         -4.2664405341        1.7550277159       -1.8638048764
 H         -3.5612111949        0.3320499117       -2.6525214850
 H         -5.1402752152        1.5555211890        2.1267122684
 H         -5.7169165976        3.1349650701        1.5920521447
 H         -3.3616385616        3.1704760001        1.3890804887
 H         -4.0027365012        3.0792177196       -0.2586791196
 O         -2.1472079639        1.1476568996        1.4878835707
 C         -1.2545417344        0.0885215576        1.4913804194
 O         -0.5194568252        0.0387097343        2.5000492862
 O         -2.0461906437       -1.3167049713       -1.7498684554
 C         -0.2485684786       -1.9277495244        0.4250185891
 C          0.7822103263       -1.7324141362       -0.6617580498
 C          1.3139655779       -2.7737169304       -1.4120498259
 C          2.2832870723       -2.5209203284       -2.3677055724
 C          2.7623954419       -1.2402210173       -2.5769117264
 C          2.2400536546       -0.1927751612       -1.8267968001
 C          1.2540569232       -0.4471204373       -0.8881467499
 H          0.8348648237        0.3790740895       -0.3350803300
 N          2.6951248454        1.1243921402       -1.9919478059
 S          2.8216380631        2.1190632398       -0.6525135025
 O          1.5188224425        2.5751810833       -0.2360630393
 O          3.7462231029        3.1531432308       -1.0676918409
 C          3.5863279500        1.0994413612        0.5963804418
 C          4.9175147707        0.7760264500        0.4101622543
 C          5.5436865385       -0.0553104298        1.3230720598
 C          4.8291122327       -0.5547546636        2.4018814369
 C          3.4970244009       -0.2168019454        2.5779396299
 C          2.8646690603        0.6187970397        1.6693851189
 H          1.8268371881        0.8882313451        1.7922701375
 H          2.9325139984       -0.5984452214        3.4139900080
 H          5.3123792348       -1.2077913981        3.1113106333
 H          6.5818555823       -0.3137011970        1.1908988139
 H          5.4403325807        1.1944845033       -0.4345246573
 H          3.4808751870        1.2302913414       -2.6165356549
 H          3.5237071659       -1.0483402641       -3.3170913810
 H          2.6800810896       -3.3366862577       -2.9524825315
 H          0.9644214145       -3.7807781323       -1.2543596761
 H          0.2755332378       -1.8541797179        1.3903131756
 C         -0.9548766639       -3.2658459467        0.3553095524
 C         -0.3689914702       -4.4664976840        1.0338709757
 C         -1.5922497293       -3.8100759710        1.5974468754
 H         -2.5408955264       -4.3182060514        1.5108017404
 H         -1.4916513233       -3.2269430413        2.5017414779
 H         -0.4803531035       -5.4309681873        0.5617545651
 H          0.5624503814       -4.3374184379        1.5640233815
 H         -1.4811365601       -3.4092422538       -0.5810409372
