  62
        -98.93969679
 C         -2.1173771874       -0.3668243679        0.2593925350
 C         -2.8279690910        0.8436361970        0.0518839199
 C         -4.1839939355        0.7229210033       -0.4974620434
 C         -4.6646325579       -0.4989180202       -0.7904156269
 C         -6.0456326335       -0.7778820917       -1.3072598804
 C         -7.0283013738       -1.0356104677       -0.1564818131
 C         -6.9709063890        0.0156743627        0.9518347699
 H         -5.9993674696       -0.0417032169        1.4481349032
 H         -7.7266395502       -0.2517123707        1.6936035902
 C         -7.2099897693        1.4550100580        0.4747132367
 H         -7.8993164153        1.9433795999        1.1667492370
 H         -7.6876526374        1.4462019445       -0.5056575891
 C         -5.9504688650        2.3215445878        0.4160299018
 H         -5.4172218486        2.2590020698        1.3681671970
 H         -6.2591691134        3.3618845802        0.2828150824
 C         -4.9637290466        1.9896885962       -0.7106276557
 H         -4.2228962651        2.7936772408       -0.7514379653
 H         -5.4921457252        1.9610980156       -1.6658298447
 H         -6.7989209394       -2.0089305842        0.2832458600
 H         -8.0383894513       -1.0780904502       -0.5678629711
 H         -6.0027783971       -1.6645791137       -1.9418739954
 H         -6.3815729188        0.0682382456       -1.9035476857
 O         -3.9497607559       -1.6346960347       -0.6022799513
 C         -2.6636596166       -1.6077717205       -0.0727412492
 O         -2.1485897917       -2.7345236847        0.0369298111
 O         -2.3465734897        1.9773206245        0.3228793505
 C         -0.7262466555       -0.2412197134        0.8523107671
 C          0.3262296674       -0.1272520520       -0.2218822714
 C          0.3403461626       -0.9846755313       -1.3183246424
 C          1.3161631982       -0.8658646277       -2.2906909905
 C          2.3095000288        0.0917508264       -2.1774455754
 C          2.3091873629        0.9468585667       -1.0829913225
 C          1.3139714900        0.8415365785       -0.1205469047
 H          1.3238915015        1.5247309148        0.7149383183
 N          3.3173051955        1.9197259001       -0.9162854440
 S          4.3379614770        1.7198966689        0.3982870576
 O          3.5680660758        1.7367157457        1.6139613540
 O          5.3538917304        2.7373406426        0.2555527104
 C          5.0554849308        0.1062534837        0.1418667469
 C          6.2641465046        0.0065682434       -0.5193753964
 C          6.7808367801       -1.2513333923       -0.7851140021
 C          6.0780264800       -2.3822411341       -0.3971901444
 C          4.8642327571       -2.2653384432        0.2626841415
 C          4.3446911642       -1.0098937930        0.5357896021
 H          3.4071088345       -0.8831685514        1.0512867327
 H          4.3159858266       -3.1432529479        0.5651285581
 H          6.4782158943       -3.3612833635       -0.6084333130
 H          7.7259291611       -1.3461424845       -1.2951764349
 H          6.7776789441        0.9123963163       -0.7989643636
 H          3.8727815923        2.0717535722       -1.7471792520
 H          3.0759955468        0.1798121105       -2.9327308347
 H          1.3102424048       -1.5334533670       -3.1387607374
 H         -0.4178103889       -1.7492362706       -1.3941224453
 H         -0.7378173396        0.7181271283        1.3944752252
 C         -0.3997594842       -1.3316047538        1.8654145793
 C          0.6777517874       -2.3484674167        1.6527507901
 C          0.8730833637       -1.2532867740        2.6558257181
 H          0.8439770319       -1.5019948978        3.7061056940
 H          1.5586009299       -0.4513391855        2.4191855919
 H          0.4945785363       -3.3505609787        2.0088333574
 H          1.2368370817       -2.3107418003        0.7308170109
 H         -1.2821125427       -1.6701778980        2.3980279665
