  62
        -98.94479499
 C         -2.0433609070        1.3275113937       -0.0091052119
 C         -2.6468895238        0.6772944382       -1.1115584802
 C         -3.8404711661       -0.1245953799       -0.8128316952
 C         -4.2777481070       -0.2034772695        0.4575316680
 C         -5.4512717189       -1.0221868755        0.9103684779
 C         -5.0164845195       -2.4328108997        1.3315194080
 C         -4.1199982487       -3.1331272577        0.3103036833
 H         -3.1684270760       -2.5996209837        0.2471369956
 H         -3.9016056444       -4.1304939768        0.6983815682
 C         -4.7299304557       -3.2524377972       -1.0935264063
 H         -4.5581673552       -4.2651633579       -1.4644247399
 H         -5.8092562518       -3.1055441632       -1.0416866816
 C         -4.1375234363       -2.2929084497       -2.1273874008
 H         -3.0472370736       -2.3717552972       -2.1165221115
 H         -4.4771401867       -2.6087494432       -3.1174112233
 C         -4.5173987575       -0.8156853264       -1.9632579308
 H         -4.1913919581       -0.2875996954       -2.8641753011
 H         -5.6023127327       -0.7223606821       -1.8844989079
 H         -4.4685485547       -2.3598620345        2.2738803796
 H         -5.9114340872       -3.0332069532        1.5044156722
 H         -5.9084060654       -0.5226438663        1.7661232574
 H         -6.1799865205       -1.0806236841        0.1041887392
 O         -3.6637227717        0.4228813748        1.4928489742
 C         -2.5255594306        1.1918650291        1.2930842279
 O         -2.0545128936        1.6896043142        2.3320291772
 O         -2.2043930721        0.7596126997       -2.2899391068
 C         -0.8048093828        2.1735986759       -0.2464644625
 C          0.3731986803        1.5635914247        0.4727590889
 C          1.1981713534        2.2673789370        1.3390215918
 C          2.2512550934        1.6314538315        1.9754030545
 C          2.5120624705        0.2924096805        1.7541052321
 C          1.7061305836       -0.4158553572        0.8703491160
 C          0.6524573257        0.2223446589        0.2355912023
 H          0.0228115355       -0.3315028781       -0.4499477121
 N          1.9757706810       -1.7711210151        0.6190945351
 S          3.5690822715       -2.2289580078        0.3912946893
 O          3.5078700980       -3.3964458914       -0.4601804134
 O          4.2079242658       -2.4179575154        1.6699537576
 C          4.3368458766       -0.8665873102       -0.4684108452
 C          5.4222891643       -0.2243614231        0.0914748714
 C          5.9885396046        0.8463049615       -0.5818891377
 C          5.4592422658        1.2563500572       -1.7954325764
 C          4.3702951831        0.5984307342       -2.3469489062
 C          3.8020531570       -0.4742376682       -1.6795904785
 H          2.9572702812       -1.0078847925       -2.0853542561
 H          3.9589565754        0.9183091392       -3.2909752007
 H          5.8967824678        2.0931611859       -2.3164752310
 H          6.8365963914        1.3582592627       -0.1566351896
 H          5.7989229504       -0.5740030193        1.0389571429
 H          1.3676729324       -2.1939454287       -0.0660548249
 H          3.3160220968       -0.2196324441        2.2574577133
 H          2.8758589077        2.1871079807        2.6578026584
 H          1.0105200427        3.3111570615        1.5275189595
 H         -0.6128221006        2.1075468692       -1.3277287033
 C         -1.0631939869        3.6206583194        0.1132119036
 C         -0.2822611493        4.7110774075       -0.5554852823
 C         -1.7276245273        4.5086069244       -0.8944834428
 H         -2.4482164568        5.2335003214       -0.5466471399
 H         -1.9748900159        4.0747659428       -1.8525035081
 H         -0.0103220633        5.5803564376        0.0237604829
 H          0.4550391659        4.4198106849       -1.2879146576
 H         -1.3418090022        3.7498927314        1.1527055214
