  62
        -98.94370519
 C          1.2421521363        0.9052929498        0.2469062235
 C          1.6852231089       -0.2508446968        0.9375472766
 C          2.7068951347       -1.0612624570        0.2634546823
 C          3.0926693313       -0.7254506086       -0.9805274089
 C          4.1548925968       -1.4329113877       -1.7699935432
 C          5.5369565261       -0.8099794468       -1.5273724655
 C          5.8776919662       -0.6184906515       -0.0494861837
 H          6.8856322297       -0.2012013074        0.0002986236
 H          5.2006519308        0.1243905053        0.3783822734
 C          5.8135269073       -1.9032942485        0.7881041732
 H          5.8442531434       -2.7744734712        0.1327240519
 H          6.6964797940       -1.9481484034        1.4290463973
 C          4.5924548814       -2.0023558998        1.7042945828
 H          4.7548116067       -2.8308278850        2.3987820944
 H          4.5057215540       -1.0891229346        2.2984277034
 C          3.2506065700       -2.2508161397        1.0034951403
 H          3.3351274189       -3.1120378574        0.3369043035
 H          2.5104168543       -2.4875661457        1.7737329739
 H          6.2889258680       -1.4468463823       -1.9967412276
 H          5.5660553608        0.1669208444       -2.0156020850
 H          4.1638672420       -2.4856665708       -1.4932935422
 H          3.9069601103       -1.3493651821       -2.8296674999
 O          2.5786700340        0.3359202368       -1.6506195971
 C          1.6399391758        1.1758326586       -1.0632926293
 O          1.2543715620        2.0958342221       -1.8081375796
 O          1.2391556546       -0.5919434749        2.0663732769
 C          0.1946390258        1.7681821965        0.9257127305
 C         -1.0005608763        1.9518497962        0.0234103149
 C         -1.6407287964        3.1652292651       -0.1904737440
 C         -2.7550056404        3.2308398873       -1.0099786741
 C         -3.2672576131        2.0960520580       -1.6114071871
 C         -2.6309373688        0.8767096221       -1.4056945784
 C         -1.5092179760        0.8183527942       -0.5971327709
 H         -1.0013790979       -0.1257240152       -0.4732520101
 N         -3.1072976387       -0.3028134060       -1.9955633514
 S         -2.9264139824       -1.7612963530       -1.2036321530
 O         -1.5655646912       -2.2284849411       -1.3043675125
 O         -3.9295990553       -2.6159325781       -1.8032103192
 C         -3.3606015322       -1.4245046241        0.4943074648
 C         -2.4100128774       -1.4860994250        1.4921958193
 C         -2.7799532266       -1.1718992430        2.7906823679
 C         -4.0874601482       -0.8063722006        3.0687123339
 C         -5.0347894275       -0.7597155220        2.0568120225
 C         -4.6696954117       -1.0685965780        0.7572064539
 H         -5.3796945590       -1.0528698249       -0.0535492621
 H         -6.0525331589       -0.4805374967        2.2766111105
 H         -4.3684910254       -0.5590247229        4.0802121916
 H         -2.0356950981       -1.2079957704        3.5704504462
 H         -1.3966663328       -1.7676671356        1.2503355571
 H         -3.9943467451       -0.2245587037       -2.4695470544
 H         -4.1384523788        2.1509868183       -2.2457252564
 H         -3.2368253446        4.1820601605       -1.1776156244
 H         -1.2584089183        4.0635408943        0.2651965120
 H         -0.1394426832        1.1534553747        1.7799904114
 C          0.7238052740        3.0676449446        1.5152776231
 C          2.1863807813        3.2664296736        1.7762353414
 C          1.5025958285        4.0584622928        0.7045676239
 H          1.3307657818        5.1107632477        0.8784461378
 H          1.7018841014        3.8095751746       -0.3255627314
 H          2.4828050927        3.7699203718        2.6843456523
 H          2.8609952857        2.4784322289        1.4729615352
 H          0.0503519642        3.4777375674        2.2614815887
