  62
        -98.93506459
 C          2.0877957746        1.2161496183        0.3221823009
 C          2.7861940369        0.4323510795        1.2763949260
 C          4.0980100106       -0.0771275435        0.8674047450
 C          4.5663907669        0.2043891444       -0.3617936787
 C          5.8947184635       -0.2243687788       -0.9234978904
 C          5.8941767613       -1.6407589899       -1.5147500948
 C          5.8345712490       -2.7742711869       -0.4899076727
 H          6.0613986554       -3.6999436016       -1.0226466661
 H          6.6157567016       -2.6292393835        0.2570240196
 C          4.4753110085       -2.9277662675        0.2069526120
 H          3.7098003640       -2.3984982224       -0.3657356884
 H          4.1900282984       -3.9822695800        0.2208131716
 C          4.4442182890       -2.4311194866        1.6525310845
 H          3.4269997466       -2.5520696064        2.0340238610
 H          5.1081415884       -3.0450399334        2.2652661143
 C          4.8426954362       -0.9593938498        1.8234663829
 H          5.9179471537       -0.8431880765        1.6895575621
 H          4.5800405133       -0.6489542846        2.8378032140
 H          5.0531043449       -1.7305097786       -2.2062818536
 H          6.8136796539       -1.7523019514       -2.0939697678
 H          6.6604820046       -0.1515906806       -0.1506711032
 H          6.1368670095        0.4809658345       -1.7213160023
 O          3.8655122951        0.9494844193       -1.2533303889
 C          2.6058658704        1.4583522938       -0.9517763923
 O          2.0890344016        2.0877216784       -1.8895753239
 O          2.3321456279        0.1722195555        2.4242626866
 C          0.7167811872        1.7403530905        0.7329067561
 C         -0.3370665360        1.1306445062       -0.1571682638
 C         -0.8015626289        1.6657489492       -1.3529460187
 C         -1.7393197935        0.9857149908       -2.1123600152
 C         -2.2356642126       -0.2393653219       -1.7087749890
 C         -1.7751679770       -0.7907290396       -0.5199516259
 C         -0.8445407429       -0.1028065527        0.2435218837
 H         -0.4845845260       -0.5440852798        1.1643974557
 N         -2.2724983544       -2.0342026283       -0.0934741008
 S         -3.9275742940       -2.2725284679       -0.1687027296
 O         -4.2178616431       -3.2467745147        0.8597942761
 O         -4.3046240199       -2.6436616629       -1.5098631750
 C         -4.6392293450       -0.6887479193        0.2431667938
 C         -5.4310083123       -0.0284158060       -0.6737852701
 C         -5.9364961323        1.2198554594       -0.3468614675
 C         -5.6378917102        1.7853344978        0.8828058555
 C         -4.8442060643        1.1072618398        1.7955793265
 C         -4.3389766037       -0.1420326480        1.4753348704
 H         -3.7231448690       -0.6964592319        2.1653489525
 H         -4.6129395576        1.5485834868        2.7517203983
 H         -6.0258139295        2.7600223001        1.1333240680
 H         -6.5562472287        1.7481290061       -1.0532738667
 H         -5.6338153558       -0.5021817227       -1.6204517617
 H         -1.8942987109       -2.3480552828        0.7880370347
 H         -2.9552627764       -0.7829353499       -2.2992138231
 H         -2.0823848350        1.4178321818       -3.0400784813
 H         -0.4082681355        2.5956728375       -1.7211389557
 H          0.5669394169        1.2970469758        1.7299735339
 C          0.7178254015        3.2438266172        0.9767740976
 C          0.8164058576        4.3143950653       -0.0665874239
 C         -0.4582396811        4.1316177261        0.7005302629
 H         -0.7190615201        4.8756100926        1.4383861093
 H         -1.3051753108        3.7002503566        0.1906682866
 H          1.4325435963        5.1720882235        0.1653533068
 H          0.8727388799        4.0239775140       -1.1019302578
 H          1.2649708653        3.4569522230        1.8923614039
