  62
        -98.93423094
 C         -2.4444280164       -1.1002574392        0.0726183612
 C         -2.6615765144       -0.0159645193       -0.8080144117
 C         -4.0627701885        0.4092909759       -0.9848228868
 C         -5.0341293074       -0.2492438519       -0.3287881771
 C         -6.5074346621        0.0527876533       -0.3265027265
 C         -6.8738556057        0.9650748374        0.8565627367
 C         -6.7362695252        2.4624800208        0.5836901019
 H         -7.5290760706        2.7769444809       -0.0982250384
 H         -6.8949121888        2.9811386418        1.5319507826
 C         -5.3896789741        2.9015586002        0.0026039181
 H         -4.5781546031        2.3889112024        0.5224402779
 H         -5.2730950790        3.9694602804        0.1971327612
 C         -5.2769064531        2.6569420743       -1.5095105974
 H         -4.9574242791        3.5776067989       -2.0020944691
 H         -6.2635659581        2.4201027432       -1.9071141904
 C         -4.2780454084        1.5660780875       -1.9223520187
 H         -4.5645856973        1.1715267159       -2.9029983110
 H         -3.2842549105        2.0089703456       -2.0437493568
 H         -7.9087393127        0.7676608165        1.1432920601
 H         -6.2414591408        0.6849525481        1.7029473244
 H         -6.8130999791        0.4911664494       -1.2716559974
 H         -7.0195746762       -0.9031944737       -0.1993538266
 O         -4.7788027156       -1.2972102577        0.5035946330
 C         -3.4910431959       -1.7428049341        0.7320779420
 O         -3.4071273373       -2.6977371772        1.5312405747
 O         -1.7316187827        0.5782805966       -1.4146361967
 C         -1.0345868854       -1.6019296773        0.3217588453
 C         -0.1578115242       -0.4845951908        0.8337385097
 C         -0.6287998078        0.3265427741        1.8635982120
 C          0.1480398194        1.3504055836        2.3688553452
 C          1.4197600214        1.5770677999        1.8721959136
 C          1.9014176978        0.7712972294        0.8482347687
 C          1.1138229338       -0.2512090944        0.3360326462
 H          1.5154703540       -0.8595620299       -0.4567333518
 N          3.1792455918        0.9877989885        0.3077426202
 S          4.0859936146       -0.3508742996       -0.1774877665
 O          3.6947110176       -0.7287083173       -1.5118278793
 O          4.0141198523       -1.3870459468        0.8281688533
 C          5.7188295211        0.3664718910       -0.2104848751
 C          6.5454779098        0.2206491987        0.8876320035
 C          7.8004450415        0.8086377950        0.8649307226
 C          8.2042088252        1.5308621203       -0.2479850986
 C          7.3638685824        1.6677905242       -1.3430138452
 C          6.1082260056        1.0816325305       -1.3273131784
 H          5.4245335343        1.1535705198       -2.1571782054
 H          7.6822066067        2.2277377172       -2.2075076074
 H          9.1811806122        1.9875701543       -0.2633509968
 H          8.4573177329        0.7011524111        1.7130417736
 H          6.1928902504       -0.3574813222        1.7266397321
 H          3.7321885359        1.6349395001        0.8529383131
 H          2.0290160402        2.3749740621        2.2688705534
 H         -0.2353852413        1.9733664694        3.1631468813
 H         -1.6187655643        0.1424578458        2.2598988255
 H         -1.1153542689       -2.3590923557        1.1166461462
 C         -0.4915503819       -2.2668895994       -0.9258986571
 C          0.5346446695       -3.3530786143       -0.8182746534
 C         -0.8696758155       -3.6857261267       -1.2219597095
 H         -1.0597737413       -3.9658051176       -2.2471372807
 H         -1.5028318882       -4.1888275502       -0.5053732381
 H          1.3151546283       -3.3984880148       -1.5635889583
 H          0.8628082700       -3.6349381093        0.1713175378
 H         -0.4204998588       -1.5822847834       -1.7641193905
