  62
        -98.93792430
 C         -2.2144876729       -0.8922266362       -0.0505559402
 C         -3.2315484283       -0.7799351790        0.9303881602
 C         -4.1540510488        0.3551753464        0.7879663966
 C         -3.9641435662        1.2290010488       -0.2172478011
 C         -4.8582508679        2.3919128768       -0.5415814791
 C         -6.1263463263        1.8940186897       -1.2645636017
 C         -7.4218756610        2.0979978412       -0.4787513905
 H         -7.7047717351        3.1515398964       -0.5287895058
 H         -8.2025527597        1.5230654835       -0.9813920040
 C         -7.3780035770        1.6946561113        0.9982531663
 H         -6.8932358129        2.4807406049        1.5790855776
 H         -8.4125356363        1.6450604120        1.3444687366
 C         -6.6901690096        0.3592212638        1.3096784604
 H         -6.7102125193       -0.2962630424        0.4388318849
 H         -7.2591078127       -0.1398352380        2.0966732383
 C         -5.2418899270        0.4874421988        1.8178550699
 H         -5.1246793628        1.4339582379        2.3527594077
 H         -5.0495259973       -0.3188748217        2.5316837293
 H         -5.9978533398        0.8328739636       -1.4882131769
 H         -6.2232462839        2.4067321376       -2.2227719086
 H         -4.2929671457        3.0664717961       -1.1850859381
 H         -5.1202420477        2.9204310881        0.3723208610
 O         -2.9583388524        1.1059775831       -1.1213593719
 C         -2.0607615019        0.0490396556       -1.0678038996
 O         -1.2035153519        0.0690523738       -1.9726015335
 O         -3.3624118847       -1.5963175373        1.8810298409
 C         -1.2422031624       -2.0557496346        0.0618104005
 C          0.1069692624       -1.5066524876        0.4534797916
 C          0.3604475933       -1.2171661698        1.7916569539
 C          1.5621378099       -0.6533280766        2.1757779607
 C          2.5329714150       -0.3568969136        1.2342338599
 C          2.2813795835       -0.6230413456       -0.1043099052
 C          1.0822223297       -1.2114304470       -0.4856612207
 H          0.8956747317       -1.4010690507       -1.5307026253
 N          3.2535792685       -0.3163751893       -1.0711431728
 S          4.0258636496        1.1707567151       -0.9914406465
 O          3.1961203056        2.1814108299       -0.3769319674
 O          4.4729582723        1.4370877336       -2.3415407327
 C          5.4493662886        0.8428928871        0.0295167911
 C          6.2615986597       -0.2218741003       -0.3089212207
 C          7.3774511037       -0.4862735569        0.4688077096
 C          7.6633168657        0.3157051421        1.5637392828
 C          6.8407584805        1.3834753766        1.8880317178
 C          5.7220510105        1.6525746753        1.1145852851
 H          5.0503417823        2.4677964408        1.3325911369
 H          7.0644384286        2.0064743716        2.7391134409
 H          8.5321351670        0.1073781399        2.1679222590
 H          8.0191573664       -1.3159935507        0.2197783828
 H          6.0057067295       -0.8188687069       -1.1681319005
 H          2.9536322344       -0.5114241706       -2.0157459493
 H          3.4673805896        0.0945325280        1.5248805386
 H          1.7463663326       -0.4387910821        3.2175133803
 H         -0.4059758721       -1.4280442134        2.5243771060
 H         -1.6166578579       -2.6649227545        0.8953008435
 C         -1.2190135077       -2.9061585496       -1.1907351628
 C         -0.5866077359       -4.2639774825       -1.1405235428
 C         -2.0747007427       -4.1341290573       -1.2577244744
 H         -2.5429919011       -4.3836366657       -2.1981346463
 H         -2.6787610374       -4.3696250644       -0.3938792869
 H         -0.0309055511       -4.6067103227       -1.9998740540
 H         -0.1787057427       -4.5861159418       -0.1945362318
 H         -1.1134639087       -2.3293619254       -2.1015764089
