  62
        -98.94264981
 C         -1.4334906074       -1.4775265919        0.3030936796
 C         -1.9461554782       -0.9957322726       -0.9266043132
 C         -2.8909756469        0.1285090009       -0.8278605873
 C         -3.2099690538        0.6234931666        0.3817570834
 C         -4.1160845493        1.7967190210        0.6166498550
 C         -3.3272374847        3.1126592950        0.6588307535
 C         -2.3555242468        3.2873613501       -0.5082523465
 H         -1.8737840621        4.2603960213       -0.3909155941
 H         -1.5713287475        2.5296213440       -0.4364007457
 C         -3.0112394520        3.2110315509       -1.8943308415
 H         -4.0875856026        3.3621257592       -1.8045194983
 H         -2.6210477811        4.0226760259       -2.5121856323
 C         -2.7466424600        1.9089684940       -2.6525299548
 H         -1.6720905487        1.7079682112       -2.6735040073
 H         -3.0706538842        2.0467711108       -3.6876693902
 C         -3.4604839363        0.6635532767       -2.1118254550
 H         -4.5274578948        0.8694972087       -2.0048822584
 H         -3.3373581423       -0.1349178261       -2.8497182513
 H         -4.0379028460        3.9409284458        0.6691185299
 H         -2.7566142970        3.1412934479        1.5891952930
 H         -4.8643954449        1.8341402563       -0.1727242909
 H         -4.6199428355        1.6546445968        1.5741243229
 O         -2.7044466683        0.1294840114        1.5396187559
 C         -1.8129916618       -0.9303715810        1.5303783278
 O         -1.4370567273       -1.2948458642        2.6614750368
 H          0.4548136767       -0.2655197480       -0.7187474516
 C          1.2226364467       -1.0263436747       -0.6742403010
 C          0.9188638936       -2.2839550650       -0.1777195944
 C          1.9361585200       -3.2342061684       -0.1330590058
 C          3.2149268103       -2.9297698022       -0.5618094793
 C          3.5117444956       -1.6703214851       -1.0545297369
 C          2.5028928552       -0.7227178501       -1.1188810167
 N          2.8125954263        0.5760534402       -1.5974546901
 S          3.5211597029        1.5628743811       -0.4422637652
 O          3.7020455576        2.8522227341       -1.0679256607
 O          4.7077589981        0.9077185001        0.0424886660
 C          2.2992010544        1.6788408460        0.8515363205
 C          1.4242743871        2.7465031625        0.8494952878
 C          0.4130204914        2.7858757079        1.7959494588
 C          0.2795428503        1.7486238606        2.7059081484
 C          1.1632940598        0.6806379096        2.6924549844
 C          2.1867691128        0.6433620576        1.7589211491
 H          2.8972393737       -0.1669401228        1.7240996638
 H          1.0359623971       -0.1310365638        3.3905400115
 H         -0.5230066022        1.7584939449        3.4269229488
 H         -0.2703614413        3.6197610468        1.8156402087
 H          1.5571584460        3.5271723132        0.1173459693
 H          2.0092973862        1.0551272457       -1.9808958743
 H          4.5051449166       -1.4036002545       -1.3753374444
 H          3.9906068369       -3.6781777223       -0.5102657858
 H          1.7192249433       -4.2187097965        0.2501039410
 C         -0.4539150759       -2.6304679365        0.3547259507
 H         -0.3370976511       -2.8729335624        1.4214237423
 C         -1.0107501879       -3.8541713924       -0.3551836928
 C         -0.8326702917       -5.2237121680        0.2249421283
 C         -2.1812013504       -4.5713850415        0.2458952129
 H         -2.9527618212       -4.9425918324       -0.4115453887
 H         -2.5538806474       -4.2032521073        1.1912640210
 H         -0.3116019774       -5.3125651291        1.1665788241
 H         -0.6723922551       -6.0508679971       -0.4497692091
 H         -0.9949405928       -3.7539834751       -1.4337423380
 O         -1.6320087873       -1.4633393289       -2.0528422130
