  62
        -98.94493074
 C         -2.4559048707       -1.1414480701       -0.0644292103
 C         -3.1665802609       -0.3843631000        0.9051710295
 C         -3.7421100209        0.8838445200        0.4495985693
 C         -3.5947746407        1.2569020498       -0.8340944207
 C         -4.1178849106        2.5228644197       -1.4557073909
 C         -3.2003331607        3.7356894898       -1.2466685009
 C         -3.1917896810        4.3079563899        0.1715899190
 H         -2.6908531710        5.2767215100        0.1211819390
 H         -4.2173373811        4.4869234499        0.4963022288
 C         -2.4671668311        3.4335208901        1.2047390992
 H         -1.8231258510        2.7158832101        0.6893592894
 H         -1.8136635513        4.0602160302        1.8160013293
 C         -3.3928089813        2.6791215301        2.1598068892
 H         -2.7745268714        2.0622143902        2.8167040793
 H         -3.9378100314        3.3935936002        2.7806290990
 C         -4.4078266411        1.7616389200        1.4658272091
 H         -5.1941754711        2.3542049200        0.9992079289
 H         -4.8568607612        1.1133536701        2.2220927791
 H         -2.1824607107        3.4576326298       -1.5327117707
 H         -3.5348655106        4.5196247297       -1.9302085011
 H         -4.1998656504        2.3333385696       -2.5281391309
 H         -5.1110965107        2.7432043097       -1.0635455011
 O         -2.9416853205        0.4883232497       -1.7432811105
 C         -2.3279929905       -0.7027021002       -1.3821388303
 O         -1.7323885003       -1.2540727703       -2.3315097501
 O         -3.3135177011       -0.7575473599        2.0988753695
 C         -1.7852266008       -2.4148832200        0.4293604100
 C         -0.3322705508       -2.1118956399        0.7072384602
 C          0.1425966089       -2.0181805697        2.0104838503
 C          1.4551992989       -1.6565776796        2.2593710405
 C          2.3156652590       -1.3652203797        1.2155512906
 C          1.8469250993       -1.4487060799       -0.0885450495
 C          0.5412375293       -1.8390763600       -0.3365362497
 H          0.1822685195       -1.8788077801       -1.3544413397
 N          2.7047522895       -1.0913318500       -1.1575808994
 S          2.9900415494        0.5699054100       -1.2416103895
 O          1.8617438793        1.3262067400       -0.7434156998
 O          3.3865981896        0.8308653699       -2.6084550695
 C          4.3961311892        0.7964206402       -0.1734988393
 C          5.5806765793        0.1751843202       -0.5190911790
 C          6.6845266591        0.3363358303        0.3028471112
 C          6.5859628489        1.1127087505        1.4482544411
 C          5.3901527288        1.7313076705        1.7797031108
 C          4.2814534590        1.5731250203        0.9623975706
 H          3.3288290889        2.0283934303        1.1815705204
 H          5.3149618487        2.3341524805        2.6704191507
 H          7.4463718288        1.2367202306        2.0866948612
 H          7.6160913892       -0.1429710796        0.0486911714
 H          5.6124326795       -0.4141637599       -1.4201715789
 H          2.3387133096       -1.3917881501       -2.0518782094
 H          3.3354125090       -1.0691065197        1.4008130107
 H          1.8089127687       -1.5898639895        3.2767957805
 H         -0.5348596912       -2.2074742397        2.8304944302
 H         -2.2711419109       -2.6421678499        1.3876069799
 C         -1.9605444506       -3.6037086901       -0.4921244399
 C         -1.7519320006       -4.9818262300        0.0583791603
 C         -3.1320912306       -4.5161270201       -0.2934216100
 H         -3.6130314804       -4.9316456402       -1.1661479601
 H         -3.8141379007       -4.2853813000        0.5118107198
 H         -1.2823728805       -5.7214860701       -0.5715612396
 H         -1.4982147408       -5.0680982799        1.1039880403
 H         -1.6501011504       -3.4145932902       -1.5112545199
