  62
        -98.93465917
 C         -1.9167220499       -1.2943752407        0.4310304289
 C         -2.4575263605       -0.5982293102       -0.6750794004
 C         -3.7188629806        0.1415847993       -0.4445791995
 C         -4.2525053202        0.1552171884        0.7900495307
 C         -5.4977761502        0.8556344177        1.2654510815
 C         -5.2970477006        2.3690735077        1.4419882924
 C         -4.5433415912        3.0533977886        0.3046092826
 H         -4.3776398014        4.0943653385        0.5949761332
 H         -3.5612780111        2.5895540390        0.1933522620
 C         -5.2600338016        3.0530849093       -1.0436232472
 H         -6.2290391617        3.5452348589       -0.9343430165
 H         -4.6580720220        3.6544776499       -1.7297891470
 C         -5.4796085715        1.6810255096       -1.6848591180
 H         -5.7581662419        1.8517767202       -2.7288501177
 H         -6.3154996112        1.1607398391       -1.2247535180
 C         -4.2467270012        0.7829509600       -1.7052759589
 H         -4.4315275112       -0.0446493896       -2.4010257194
 H         -3.4051410715        1.3368915505       -2.1371814889
 H         -6.2762561807        2.8349067173        1.5648493131
 H         -4.7293531303        2.5300544072        2.3618929123
 H         -6.3227508104        0.6510314479        0.5896681117
 H         -5.7484488498        0.4233262470        2.2368180613
 O         -3.6571964696       -0.4763372921        1.8432466401
 C         -2.4917998095       -1.2018579517        1.6999988292
 O         -2.0637015190       -1.7026143322        2.7600515387
 H          0.3935201099        0.1961714695        1.0832741291
 C          0.8390099997       -0.1304710298        0.1508882387
 C          0.4148666598       -1.3271943195       -0.4153069419
 C          0.9946437495       -1.7380474086       -1.6075314423
 C          1.9527672891       -0.9538440879       -2.2267295922
 C          2.3605224090        0.2435848218       -1.6695276115
 C          1.7970958992        0.6567602009       -0.4683684211
 N          2.2202104391        1.8624211807        0.1162523895
 S          3.8612976290        2.1860077011        0.1451043092
 O          4.0601831892        3.0299548104        1.3029267797
 O          4.2687226984        2.7492955220       -1.1180506106
 C          4.6509923095        0.6027839812        0.3801751479
 C          4.3292770901       -0.1250278796        1.5087537676
 C          4.9084093106       -1.3700960196        1.6910707566
 C          5.7957754104       -1.8636572487        0.7467054960
 C          6.1137888098       -1.1180410379       -0.3775255337
 C          5.5356445294        0.1271666121       -0.5660186027
 H          5.7514145889        0.7383937427       -1.4271556224
 H          6.8057154996       -1.5031938772       -1.1089895441
 H          6.2416858607       -2.8351298287        0.8902377952
 H          4.6620432810       -1.9509128202        2.5654972363
 H          3.6391665403        0.2874554597        2.2275190981
 H          1.7854304493        2.0681367500        1.0031084198
 H          3.0913278286        0.8732172724       -2.1506811614
 H          2.3838429389       -1.2770076172       -3.1618306325
 H          0.6744121497       -2.6572979784       -2.0687499828
 C         -0.6416001397       -2.1131926603        0.3214929680
 H         -0.2997030693       -2.2363249508        1.3625639278
 C         -0.8460799395       -3.5158296500       -0.2311799928
 C         -2.1438983892       -4.2393688105       -0.0337245628
 C         -1.7316865598       -3.8006943495       -1.4052125227
 H         -1.4185295298       -4.5571850890       -2.1100289833
 H         -2.2453725602       -2.9682359594       -1.8585001520
 H         -2.1136642388       -5.2922534506        0.2033700065
 H         -2.9452908892       -3.7053463110        0.4565653578
 H          0.0540840507       -4.1164191298       -0.1441540535
 O         -1.9298833009       -0.5806374593       -1.8165627306
