  62
        -98.93764538
 C         -2.4725635400       -0.9452539121        0.6356523181
 C         -3.5262436500       -0.9387444896       -0.3109428419
 C         -4.7183515098       -0.1596285902        0.0609069500
 C         -4.7451881397        0.5013285170        1.2315295116
 C         -5.8715865495        1.3741396161        1.7021230337
 C         -5.6671883792        2.8320995771        1.2673738672
 C         -5.3244662092        2.9932741806       -0.2137048924
 H         -5.2337200589        4.0634945610       -0.4119269299
 H         -4.3449081993        2.5482560408       -0.4040630635
 C         -6.3538013793        2.3812454231       -1.1740607039
 H         -7.2978099093        2.2201514221       -0.6521554343
 H         -6.5463414991        3.0922650651       -1.9802840922
 C         -5.9086229796        1.0733188046       -1.8307527470
 H         -6.6042709296        0.8469489867       -2.6432998776
 H         -4.9187178196        1.2048001454       -2.2751603067
 C         -5.8650722199       -0.1532812576       -0.9109287000
 H         -6.8163399899       -0.2523215987       -0.3842455002
 H         -5.7279482901       -1.0359518861       -1.5423163221
 H         -6.5770151390        3.3906045768        1.4948791785
 H         -4.8507020791        3.2577989155        1.8552289082
 H         -6.8096681296        0.9934633273        1.3028463328
 H         -5.9068389795        1.3310634835        2.7920131636
 O         -3.7112946897        0.4828017147        2.1105923715
 C         -2.5601558198       -0.2323125949        1.8358730298
 O         -1.6935778198       -0.1658973972        2.7315926900
 O         -3.5019517002       -1.5454851569       -1.4142609233
 C         -1.1736668502       -1.7112959519        0.4370039763
 C         -0.2094257800       -0.9371346100       -0.4308831619
 C         -0.4918582200       -0.6595474168       -1.7640269012
 C          0.4129176702        0.0435962849       -2.5386021396
 C          1.6127252703        0.4812000734       -2.0059223285
 C          1.9052411402        0.2081977901       -0.6766068392
 C          0.9962106201       -0.5011123915        0.0990969091
 H          1.2207990700       -0.7017148841        1.1383182787
 N          3.1141433403        0.6647762785       -0.1225880881
 S          4.5073555503        0.4995952105       -1.0650922785
 O          4.5947128505        1.6328471726       -1.9516851458
 O          4.5232672300       -0.7997681180       -1.6981299516
 C          5.7796054203        0.6001688272        0.1781902317
 C          6.2604249906        1.8410028862        0.5503049247
 C          7.2312989306        1.9139029436        1.5366345049
 C          7.7010659404        0.7524621921        2.1316040321
 C          7.2096947801       -0.4859757169        1.7464259391
 C          6.2384563201       -0.5661344943        0.7611302089
 H          5.8366406699       -1.5079740634        0.4228929667
 H          7.5791547999       -1.3872850980        2.2085363770
 H          8.4572680604        0.8119882701        2.8983550522
 H          7.6183177308        2.8742016728        1.8370034071
 H          5.8722649408        2.7152861675        0.0543776768
 H          3.2597559803        0.3227254162        0.8172835211
 H          2.3282655004        1.0243121846       -2.6026223672
 H          0.1824060802        0.2539541674       -3.5724964890
 H         -1.4297477500       -0.9905327256       -2.1827990620
 H         -0.7276884202       -1.7919402144        1.4375795461
 C         -1.3798522905       -3.1130231805       -0.1037867471
 C         -0.3133147707       -4.1396274613        0.1242368505
 C         -1.6186935407       -4.2391245528        0.8541378202
 H         -2.3122095909       -5.0166676219        0.5715445884
 H         -1.6331804107       -4.0038186053        1.9086731408
 H         -0.1063501809       -4.8497611795       -0.6615239512
 H          0.5594565093       -3.8390010428        0.6843063912
 H         -1.9125747605       -3.1393719582       -1.0445199871
