  62
        -98.94016903
 C         -1.9874701420       -1.4900397762       -0.0044882463
 C         -1.7761869716       -0.2312199388       -0.6121500696
 C         -2.9697710253        0.6132272489       -0.7925762156
 C         -4.1696308157        0.1531434287       -0.3984484072
 C         -5.5160403419        0.8210770168       -0.5238215536
 C         -5.5994118983        2.3145571591       -0.1775793944
 C         -4.6331000060        2.7830377690        0.9202521553
 H         -5.1951490073        3.3389756442        1.6730146236
 H         -4.1859390797        1.9213998799        1.4188657934
 C         -3.5268725771        3.6981406739        0.3899955113
 H         -3.9685264461        4.4072706200       -0.3135825421
 H         -3.1197452630        4.2754136119        1.2235004623
 C         -2.3528924458        2.9894409265       -0.2852318173
 H         -1.7134594430        3.7572252483       -0.7282241723
 H         -1.7576801649        2.4610791752        0.4648725847
 C         -2.7288923020        1.9752998723       -1.3777682295
 H         -3.5807656756        2.3195731029       -1.9593016306
 H         -1.8709472660        1.8677516987       -2.0474572270
 H         -6.6269146737        2.5084946561        0.1347927780
 H         -5.4288284535        2.9064237405       -1.0758377902
 H         -5.8769189056        0.6695968679       -1.5452905854
 H         -6.1762362418        0.2543069689        0.1370568512
 O         -4.3273650890       -1.0737432832        0.1756629600
 C         -3.2525910275       -1.9174007217        0.3942444148
 O         -3.5465966391       -2.9971690999        0.9460702265
 H          1.8964568058       -2.1276204936       -0.2982526080
 C          1.5793600614       -1.6780431048        0.6272458795
 C          0.2542212044       -1.7316799571        1.0283978833
 C         -0.1018640687       -1.1318910467        2.2347259306
 C          0.8403768043       -0.4853221725        3.0098738002
 C          2.1592334634       -0.4144550275        2.5942329647
 C          2.5264491023       -1.0132991643        1.3964252864
 N          3.8624921577       -0.9763397287        0.9521090219
 S          4.2100643187       -0.3000999308       -0.5416071488
 O          3.5397950075       -1.0351897665       -1.5814545533
 O          5.6557700664       -0.2786492371       -0.6046181171
 C          3.5977185940        1.3715916342       -0.4294809531
 C          4.4965093209        2.3795986184       -0.1351051049
 C          4.0290858446        3.6738091496        0.0217803175
 C          2.6730652432        3.9359543151       -0.1062011382
 C          1.7856865978        2.9120183925       -0.3967112203
 C          2.2452763663        1.6140841023       -0.5615789820
 H          1.5610976031        0.8119277279       -0.7889692737
 H          0.7289011411        3.1018497393       -0.4960227985
 H          2.3054419623        4.9421968115        0.0202291768
 H          4.7196409393        4.4710293702        0.2456038223
 H          5.5413816485        2.1287567603       -0.0465586041
 H          4.5053235690       -0.6027186416        1.6368953294
 H          2.8970372804        0.0967178456        3.1941181546
 H          0.5466128580       -0.0258564235        3.9415921882
 H         -1.1346601640       -1.1806988874        2.5537520127
 C         -0.8148985350       -2.4270452692        0.2217239297
 H         -1.2050071374       -3.2636665906        0.8201135097
 C         -0.3188115751       -2.9698864393       -1.1021819187
 C          0.3458778381       -4.3110836432       -1.1633070217
 C         -1.0324875574       -4.1310279490       -1.7233351893
 H         -1.1612136326       -4.1444284218       -2.7953057993
 H         -1.8666860622       -4.5484270125       -1.1778305273
 H          1.1677307340       -4.4459545150       -1.8506059146
 H          0.4496133223       -4.8602592925       -0.2395552869
 H          0.0430520218       -2.1938503035       -1.7678363744
 O         -0.6472270513        0.1714148577       -0.9938078734
