  62
        -98.94297694
 C          1.9073941197        0.6757212793        0.7676289107
 C          2.8577768198        1.1763993601       -0.1560880587
 C          4.2218339499        0.6386084402       -0.0289103088
 C          4.4939665398       -0.2699595304        0.9240247406
 C          5.8232664099       -0.9375154103        1.1226319904
 C          5.9159148402       -2.2441707898        0.3222732195
 C          5.4967808305       -2.1039140788       -1.1412205605
 H          4.4296133505       -1.8737021389       -1.1855224905
 H          5.6338704608       -3.0794195984       -1.6130073912
 C          6.2780191805       -1.0413240481       -1.9267759796
 H          6.5584577508       -1.4590320074       -2.8960415198
 H          7.2013879204       -0.7964853283       -1.4005645092
 C          5.4963549004        0.2440042320       -2.2043013988
 H          4.5278528305       -0.0047709879       -2.6452434992
 H          6.0529030404        0.8269858226       -2.9429047483
 C          5.2551454200        1.1523725211       -0.9921757982
 H          4.8699127499        2.1061271313       -1.3639499876
 H          6.2001968098        1.3399840609       -0.4787537779
 H          5.2670949703       -2.9858750002        0.7942307288
 H          6.9433571203       -2.6090246996        0.3755017995
 H          6.6151803898       -0.2559194700        0.8181377910
 H          5.9389237497       -1.1633643111        2.1841163103
 O          3.5594533897       -0.7216367012        1.7992819301
 C          2.2538998796       -0.2670516813        1.7405108601
 O          1.5037294995       -0.7635596221        2.6060503796
 H         -1.4200342901       -0.7984208715        1.1070548790
 C         -1.2645386500       -0.5573062407        0.0657538492
 C         -0.3319022900        0.4059037597       -0.2935478399
 C         -0.1316304798        0.6720416207       -1.6448015797
 C         -0.8493917995       -0.0138792488       -2.6067452903
 C         -1.7906332694       -0.9616490292       -2.2441935512
 C         -1.9965075397       -1.2379129301       -0.8983013814
 N         -2.9427048896       -2.2008186606       -0.4995298223
 S         -4.1025439299       -1.7713242016        0.6282992078
 O         -3.4966077402       -1.5834360024        1.9209512980
 O         -5.1083038297       -2.8058453416        0.5329246568
 C         -4.7527798800       -0.2285389812        0.0145474187
 C         -4.1722394303        0.9569673386        0.4174589397
 C         -4.6261231804        2.1457442789       -0.1313337595
 C         -5.6489643502        2.1281641994       -1.0669619498
 C         -6.2267199099        0.9292612096       -1.4571190007
 C         -5.7717734998       -0.2628016807       -0.9175262915
 H         -6.1960941796       -1.2163020406       -1.1876309222
 H         -7.0254250097        0.9200802300       -2.1811964309
 H         -5.9985404102        3.0555229597       -1.4923778892
 H         -4.1756407706        3.0770118388        0.1725824612
 H         -3.3833924304        0.9287777082        1.1510633198
 H         -3.3777424594       -2.6874472601       -1.2707708727
 H         -2.3539339592       -1.4932673487       -2.9962735417
 H         -0.6792852493        0.1964133620       -3.6517086801
 H          0.6104845501        1.4001871810       -1.9322776790
 C          0.4515940796        1.1208101791        0.7817117808
 H          0.0560647295        0.7926855483        1.7529272305
 C          0.2948036494        2.6257423091        0.6864765418
 C         -0.9293615108        3.2704753785        1.2597317220
 C          0.3972925790        3.4475781982        1.9343964224
 H          0.8843064189        4.4094994883        1.8793798532
 H          0.5709480789        2.9241633676        2.8640493321
 H         -1.6544356708        2.6314069580        1.7412690514
 H         -1.3566136608        4.1145334388        0.7408525625
 H          0.7125369495        3.0490256798       -0.2166128478
 O          2.6077076299        2.0296133307       -1.0467751182
