  62
        -98.94046127
 C          1.8416248304        1.1269294300        0.2034413191
 C          2.1431044402        0.0823306398       -0.7065072507
 C          3.5753881902       -0.1910257803       -0.9165176710
 C          4.4966198003        0.5431615998       -0.2690751913
 C          5.9799735803        0.3332445998       -0.3527936816
 C          6.4650569605       -0.6249528100        0.7439869385
 C          5.6507937505       -1.9152956099        0.8413763790
 H          4.6368141606       -1.6748259298        1.1696301292
 H          6.1040969907       -2.5274251797        1.6241215790
 C          5.5814999702       -2.7226147602       -0.4624406208
 H          5.7512208603       -3.7763101502       -0.2309663406
 H          6.3788072201       -2.4071166404       -1.1364957910
 C          4.2388452601       -2.6382470404       -1.1910896005
 H          3.4278245102       -2.8650181002       -0.4939654203
 H          4.2255607299       -3.4074687606       -1.9680217303
 C          3.9299582700       -1.2976779805       -1.8694772108
 H          3.0496457698       -1.4429589407       -2.5026863906
 H          4.7673071598       -1.0057863407       -2.5067276410
 H          6.4052310707       -0.1094610197        1.7053490184
 H          7.5121381205       -0.8669131600        0.5530529483
 H          6.4725407304        1.2984549198       -0.2233133319
 H          6.2319246401       -0.0634078304       -1.3343230916
 O          4.1707873805        1.5419477501        0.5898957185
 C          2.8472580706        1.8390529501        0.8657982587
 O          2.6949265908        2.7470459403        1.7066139585
 O          1.2819679001       -0.5934698403       -1.3257918504
 C          0.4149681505        1.5031841401        0.5718563093
 C         -0.3740727994        0.2657190302        0.9134997298
 C         -0.2323022892       -0.3161137595        2.1690395799
 C         -0.9445423791       -1.4519266894        2.5103002903
 C         -1.8091709093       -2.0359103896        1.6006767706
 C         -1.9425312996       -1.4711858099        0.3408808305
 C         -1.2405878196       -0.3223108500        0.0056204401
 H         -1.3466514898        0.1005154698       -0.9814021300
 N         -2.8477685698       -2.0544276201       -0.5813342991
 S         -4.4482488397       -1.6793735300       -0.2592904589
 O         -4.8124307694       -2.2647632797        1.0053089113
 O         -5.2072283300       -2.1094385802       -1.4115157086
 C         -4.4603063696        0.1007140700       -0.1380738593
 C         -4.1473543994        0.6898548603        1.0707918205
 C         -4.0456464593        2.0702787003        1.1355588601
 C         -4.2541128796        2.8328383601       -0.0036906700
 C         -4.5706048598        2.2260128598       -1.2097407298
 C         -4.6673426399        0.8457191598       -1.2818459994
 H         -4.9095427001        0.3333488296       -2.1993287793
 H         -4.7339179300        2.8229354996       -2.0927594099
 H         -4.1679861495        3.9069790901        0.0494262897
 H         -3.7949385491        2.5446997006        2.0708689100
 H         -3.9927674392        0.0632422505        1.9340261806
 H         -2.6346027900       -1.8081827003       -1.5383861892
 H         -2.3866810293       -2.9114548795        1.8493848010
 H         -0.8259309789       -1.8865098092        3.4913787004
 H          0.4478210010        0.1346648307        2.8790772896
 H          0.5129901607        2.1048211003        1.4891808392
 C         -0.2990437497        2.3811095499       -0.4462642607
 C          0.4291217402        3.5037130997       -1.1212268512
 C         -0.0284125200        2.3206912495       -1.9180971108
 H         -0.8621005201        2.4511957994       -2.5928544106
 H          0.7112180299        1.6196111094       -2.2709034708
 H         -0.0812387698        4.4454446597       -1.2534229813
 H          1.4851329803        3.6034251897       -0.9149156914
 H         -1.3260026996        2.5765455500       -0.1511705306
