  62
        -98.94033158
 C          2.4843422192        1.1040117399        0.0908013390
 C          2.7086093194        0.0390336395       -0.8146705304
 C          4.1099218195       -0.3679487502       -0.9794578603
 C          5.0802821694        0.2864351105       -0.3156347207
 C          6.5558649394        0.0031751708       -0.3980141406
 C          7.0261463298       -1.1259967185        0.5291808599
 C          6.6151916602       -2.5346288889        0.0986038707
 H          6.9044452802       -2.6943101293       -0.9404864793
 H          7.1887107404       -3.2357370984        0.7081425910
 C          5.1204496403       -2.8392759792        0.2713286609
 H          4.6736469201       -2.1048198290        0.9454172106
 H          4.9997994606       -3.8181433290        0.7407252614
 C          4.3221685002       -2.8613676401       -1.0322986390
 H          4.6710103304       -3.6829302404       -1.6618890886
 H          3.2723910703       -3.0443725203       -0.7884794288
 C          4.3981546598       -1.5598517705       -1.8413019697
 H          5.3766567697       -1.4641380405       -2.3113463498
 H          3.6347852298       -1.5964263111       -2.6223048596
 H          6.6518201198       -0.9289889881        1.5364114098
 H          8.1171240198       -1.0839439982        0.5661203098
 H          6.8269399294       -0.2323613396       -1.4274027305
 H          7.0653814092        0.9237652111       -0.1054927412
 O          4.8232485291        1.3266572208        0.5223164188
 C          3.5243732290        1.7435937806        0.7641072686
 O          3.4282827388        2.6780078510        1.5861433882
 H         -1.4886178308        0.8893575685       -0.4314847806
 C         -1.0805871906        0.2416462490        0.3260918097
 C          0.1979385494        0.4461354897        0.8192031495
 C          0.6773177697       -0.4154731997        1.8030156500
 C         -0.0980482400       -1.4596843497        2.2673617705
 C         -1.3768639999       -1.6567555803        1.7764635607
 C         -1.8672199703       -0.8004052209        0.7985921403
 N         -3.1528076502       -0.9853163716        0.2648658805
 S         -4.0524918606        0.3774731079       -0.1635851901
 O         -3.6695212609        0.7988630774       -1.4873066504
 O         -3.9632570709        1.3772091085        0.8769164793
 C         -5.6917052705       -0.3244176325       -0.2085028097
 C         -6.5247689004       -0.1763568022        0.8843275803
 C         -7.7856222903       -0.7511238926        0.8488911207
 C         -8.1884682201       -1.4629671233       -0.2709412989
 C         -7.3414578502       -1.6024423136       -1.3605824389
 C         -6.0802465403       -1.0290631532       -1.3324420693
 H         -5.3914925204       -1.1029891335       -2.1579220793
 H         -7.6591360301       -2.1543137042       -2.2305088286
 H         -9.1699108600       -1.9095053536       -0.2961996386
 H         -8.4476545202       -0.6414560523        1.6927115107
 H         -6.1721349105        0.3928283183        1.7293900000
 H         -3.7060319000       -1.6469123115        0.7920606109
 H         -1.9850932797       -2.4702197703        2.1418608712
 H          0.2923785303       -2.1221608192        3.0254810109
 H          1.6727458097       -0.2550323492        2.1958454398
 C          1.0700830790        1.5863073597        0.3515965789
 H          1.1405809989        2.3163434801        1.1724691985
 C          0.5281979488        2.2901382589       -0.8753312314
 C         -0.4908575315        3.3792516787       -0.7346078919
 C          0.9151268783        3.7146017689       -1.1301124122
 H          1.1060123282        4.0236866884       -2.1467622624
 H          1.5526044183        4.1917283894       -0.3997387625
 H         -0.8159195515        3.6341452291        0.2633021979
 H         -1.2718194016        3.4518696081       -1.4772780519
 H          0.4522432289        1.6306464584       -1.7330574611
 O          1.7914691695       -0.5418603011       -1.4512678201
