  62
        -98.94127460
 C         -0.9962151093       -1.3253579885       -0.0184136887
 C         -1.5690887679       -0.3585593544        0.8387846371
 C         -2.4714576645        0.6219482689        0.2131307374
 C         -2.7004412357        0.5547838194       -1.1095860149
 C         -3.5251921816        1.4811548008       -1.9684916239
 C         -4.8694484498        1.9656117744       -1.4096971678
 C         -5.6093486789        0.9460757759       -0.5311683732
 H         -6.6342689562        0.8446787411       -0.8925803742
 H         -5.1347558105       -0.0329231545       -0.6169895099
 C         -5.6679051395        1.3583670806        0.9414346531
 H         -6.4842560759        0.8167605578        1.4251718681
 H         -5.9033915092        2.4233670402        0.9973632017
 C         -4.4005147111        1.0825607150        1.7489706585
 H         -4.2775170746        0.0051209369        1.8872237125
 H         -4.5325020102        1.5209224159        2.7409764398
 C         -3.0959777321        1.6243144302        1.1416185836
 H         -3.2536770593        2.5828614536        0.6524442396
 H         -2.3809502004        1.7649972800        1.9569948360
 H         -4.7191372153        2.8832523060       -0.8426330088
 H         -5.4902904083        2.2266877128       -2.2685249627
 H         -2.9022384931        2.3462433823       -2.2176531700
 H         -3.6918089715        0.9314659371       -2.8984233100
 O         -2.1454241890       -0.4098270123       -1.8964980354
 C         -1.2699329527       -1.3552287059       -1.3850636789
 O         -0.8223346599       -2.1520896531       -2.2321013565
 O         -1.3215115968       -0.3015744255        2.0734129653
 C          0.0036260231       -2.3089079719        0.5540910509
 C          1.3726060663       -2.1204696346       -0.0581224989
 C          2.3125968682       -3.1443536112       -0.1051384873
 C          3.5657781265       -2.9202796998       -0.6476203601
 C          3.9156001062       -1.6776179252       -1.1445442620
 C          2.9832590497       -0.6470938043       -1.1026886041
 C          1.7311519575       -0.8758071291       -0.5547884934
 H          1.0099870761       -0.0743159683       -0.5526710098
 N          3.2854082813        0.6196452252       -1.6136230646
 S          2.4704903500        1.9908674369       -1.1398049122
 O          1.1284089421        2.0011858263       -1.6686943952
 O          3.3281385535        3.0712292712       -1.5805797119
 C          2.4394396667        1.9413559736        0.6424868421
 C          3.6451066225        1.9018914658        1.3153395686
 C          3.6378645018        1.8362349768        2.6988312528
 C          2.4316557302        1.8044233411        3.3826663596
 C          1.2300445479        1.8524059044        2.6937503153
 C          1.2327216758        1.9256974241        1.3102707245
 H          0.3149296098        1.9554264499        0.7426313475
 H          0.2883221523        1.8079860912        3.2170494194
 H          2.4252558845        1.7419072998        4.4593936123
 H          4.5700463661        1.8034565057        3.2393650073
 H          4.5633922663        1.9318970137        0.7520957226
 H          4.2470867733        0.7856794564       -1.8654034043
 H          4.8912594484       -1.5071390226       -1.5723231810
 H          4.2832926478       -3.7258001304       -0.6829664658
 H          2.0591640202       -4.1197903682        0.2769594096
 H          0.0778605631       -2.0583462503        1.6240821547
 C         -0.5037375465       -3.7320934400        0.4240720123
 C         -0.2327072027       -4.7433883711        1.4967586821
 C         -1.6129449756       -4.1875815332        1.3234092089
 H         -2.3829446133       -4.8231400628        0.9124992656
 H         -1.9753006375       -3.4813792560        2.0563313418
 H         -0.0549318034       -5.7675614094        1.2049428037
 H          0.3322189896       -4.4225882575        2.3589699322
 H         -0.5259108245       -4.0700089575       -0.6059164414
