  62
        -98.94802905
 C         -1.2670187205       -1.0467522410        0.0064917353
 C         -1.6213628687        0.0509883212        0.8258664761
 C         -2.6590386660        0.9434954796        0.2954857048
 C         -3.1558864734        0.7141358531       -0.9337163019
 C         -4.2455425173        1.5179400093       -1.5810241973
 C         -5.6301694593        0.9314592821       -1.2713402395
 C         -5.8618750367        0.6436504528        0.2119614230
 H         -6.8800736475        0.2621959309        0.3138145516
 H         -5.1856965270       -0.1533772053        0.5291195052
 C         -5.6768439310        1.8596536433        1.1303396762
 H         -5.7217130781        2.7776970200        0.5433160746
 H         -6.5033898893        1.8895370676        1.8433505606
 C         -4.3840065565        1.8452263796        1.9478469900
 H         -4.2898049884        0.8876316694        2.4659566038
 H         -4.4549969829        2.6253570167        2.7104267748
 C         -3.0924385137        2.0948744285        1.1585298316
 H         -2.2842801943        2.2490873074        1.8799695038
 H         -3.1918699826        3.0050081758        0.5627498429
 H         -5.7396496424       -0.0047716654       -1.8235034123
 H         -6.3881428509        1.6292835723       -1.6317998131
 H         -4.1864831079        2.5469363447       -1.2309003115
 H         -4.0861442588        1.5039325004       -2.6607208595
 O         -2.7479084608       -0.3156811954       -1.7182763269
 C         -1.7945835995       -1.2205049769       -1.2725885152
 O         -1.5103814975       -2.1125996628       -2.0943729603
 O         -1.0903313322        0.2743726197        1.9480468778
 C         -0.2092880734       -2.0170140039        0.4964448447
 C          1.0246367810       -1.9441777244       -0.3703463767
 C          1.7965897756       -3.0523528951       -0.6970284087
 C          2.9361911416       -2.9068356287       -1.4693932252
 C          3.3465055018       -1.6606798862       -1.9074787717
 C          2.5838684838       -0.5451931399       -1.5808417973
 C          1.4327781903       -0.6984252511       -0.8259313715
 H          0.8335958558        0.1717456824       -0.6074025266
 N          2.9580122802        0.7423663502       -1.9936132986
 S          2.6826966901        2.0409716871       -0.9759324755
 O          1.2875908653        2.4047749321       -0.9857366128
 O          3.6002242530        3.0577845734       -1.4459416946
 C          3.1933317732        1.4693622581        0.6353918104
 C          4.5462547649        1.2606724590        0.8276959115
 C          4.9856810343        0.7664577385        2.0440573585
 C          4.0676725633        0.4839030184        3.0447153776
 C          2.7154460345        0.7046757331        2.8389102726
 C          2.2692238211        1.2025742247        1.6240843789
 H          1.2189819310        1.3734858131        1.4453151491
 H          1.9927934335        0.4876532683        3.6095335882
 H          4.4068746530        0.0918694881        3.9905391538
 H          6.0380720571        0.5996654431        2.2075557451
 H          5.2288442438        1.5031397063        0.0294650977
 H          3.8554986629        0.8023591637       -2.4512151432
 H          4.2390673829       -1.5499367964       -2.5036369774
 H          3.5200965757       -3.7773836272       -1.7266203933
 H          1.5013581187       -4.0305598195       -0.3547586292
 H          0.0710614082       -1.6581816834        1.4992071252
 C         -0.7777175100       -3.4153408269        0.6215902295
 C         -0.2736699656       -4.3471904819        1.6818714882
 C         -1.6383955973       -3.7413909854        1.8044015676
 H         -2.5021340491       -4.3719149382        1.6559025845
 H         -1.7891751388       -2.9615716847        2.5368143497
 H         -0.2019805340       -5.3993557520        1.4509416178
 H          0.5005705716       -3.9841963765        2.3406343087
 H         -1.0653206041       -3.8329765917       -0.3365693593
