  62
        -98.93432006
 C          2.5119900589        0.1437865246       -0.7053117326
 C          2.4335347654        0.7899575562        0.5527753867
 C          1.9506486966        2.1758142202        0.5255367923
 C          1.5940198690        2.7389510265       -0.6423226058
 C          1.0481610265        4.1290372198       -0.8245117291
 C         -0.4588695606        4.2321288754       -0.5498137400
 C         -0.8566752285        4.1935680497        0.9267310642
 H         -0.2465919596        4.9031036545        1.4873309711
 H         -1.8922156767        4.5348536907        0.9851965327
 C         -0.7619613580        2.8029971334        1.5702702335
 H         -1.6546524025        2.6243661916        2.1754700361
 H         -0.7478037625        2.0401611771        0.7880393052
 C          0.4432050048        2.6032878218        2.4896540778
 H          0.3435109258        3.2452765734        3.3685519539
 H          0.4452053938        1.5635562064        2.8268725676
 C          1.8004325229        2.8885779884        1.8360724410
 H          1.9349298917        3.9615823805        1.7001725354
 H          2.5828975903        2.5175890387        2.5030869105
 H         -0.8039005680        5.1778806392       -0.9749260459
 H         -0.9638435378        3.4202622581       -1.0799461936
 H          1.5883349627        4.8264596067       -0.1832152932
 H          1.2297664083        4.4009106879       -1.8666284458
 O          1.7045043832        2.0904379111       -1.8334437529
 C          2.1320278694        0.7751221342       -1.8877070423
 O          2.1438538991        0.2840679999       -3.0385165380
 O          2.7398263612        0.2430160029        1.6422113684
 C          2.8852502780       -1.3335036209       -0.7799859518
 C          1.9440879167       -2.0661605445        0.1515745455
 C          2.2459738016       -2.9721617319        1.1577840800
 C          1.2369553022       -3.5191239311        1.9372838350
 C         -0.0857167983       -3.1702171560        1.7554125094
 C         -0.4050044512       -2.2598564275        0.7512081945
 C          0.5990285850       -1.7573850168       -0.0528759249
 H          0.3340132836       -1.0773483033       -0.8497451454
 N         -1.7269875286       -1.8141450368        0.5850150524
 S         -2.2017429879       -0.9048739100       -0.7445040141
 O         -2.0850201526       -1.6850302024       -1.9593980811
 O         -1.5239764545        0.3658585887       -0.7253550830
 C         -3.9205362610       -0.6733662727       -0.3348494950
 C         -4.2646532408        0.3729004161        0.4995660793
 C         -5.5948872749        0.5416342814        0.8494289803
 C         -6.5533746129       -0.3350831860        0.3630300958
 C         -6.1935143712       -1.3793971112       -0.4754418364
 C         -4.8645387056       -1.5535750762       -0.8287615643
 H         -4.5395987029       -2.3433086064       -1.4869767813
 H         -6.9412813658       -2.0569156845       -0.8548876722
 H         -7.5880207024       -0.2013310205        0.6365252457
 H         -5.8783665722        1.3546267457        1.4981196419
 H         -3.4843782273        1.0318533372        0.8443017466
 H         -2.4287926108       -2.4830621247        0.8666238700
 H         -0.8605558855       -3.5800481206        2.3841776982
 H          1.4967572249       -4.2229975943        2.7136704620
 H          3.2603704772       -3.2569160417        1.3690330639
 H          2.6157206191       -1.6474310304       -1.8040154523
 C          4.3967371773       -1.4671268328       -0.6851603201
 C          5.1811694445       -1.5957404700        0.5820845323
 C          5.1440024239       -2.7346188617       -0.3944696588
 H          6.0350940781       -2.9292315919       -0.9733113815
 H          4.5844731405       -3.6240316318       -0.1565220374
 H          6.0944084482       -1.0240652333        0.6636135995
 H          4.6325377103       -1.6551768072        1.5073141114
 H          4.8431301103       -0.8315261927       -1.4482999759
