  62
        -98.93916364
 C         -2.6737168612       -0.2846377134       -0.3240742719
 C         -2.2469822819       -1.0671087143        0.7776820036
 C         -1.7136234192       -2.4003394832        0.4487162462
 C         -1.6352769459       -2.7893963053       -0.8353545147
 C         -1.0896743949       -4.1064387293       -1.3062458505
 C          0.4099517764       -4.0232408662       -1.6181852455
 C          1.2447954608       -3.3893242338       -0.5048980103
 H          2.2911821689       -3.4426073227       -0.8160273053
 H          0.9957227232       -2.3280949203       -0.4261253261
 C          1.0871188257       -4.0538045444        0.8695682156
 H          0.6733989616       -5.0568814479        0.7524385976
 H          2.0766489381       -4.1590617126        1.3195024573
 C          0.2329192814       -3.2622388015        1.8619686800
 H          0.5773710805       -2.2249677839        1.8911110586
 H          0.3880269510       -3.6866465620        2.8582716577
 C         -1.2781434848       -3.2679275989        1.5961446373
 H         -1.6228327754       -4.2950467824        1.4531880260
 H         -1.7714492940       -2.8590782397        2.4832605008
 H          0.7745441343       -5.0330503336       -1.8182471833
 H          0.5435171890       -3.4247001680       -2.5222360116
 H         -1.2700219239       -4.8593363761       -0.5409480765
 H         -1.6239345589       -4.3896098402       -2.2151949926
 O         -2.0395095782       -2.0061148943       -1.8684572246
 C         -2.5404800378       -0.7382554978       -1.6389270498
 O         -2.8584820706       -0.1181773364       -2.6750902359
 O         -2.3127619393       -0.7011818861        1.9802931316
 C         -3.1991554041        1.1376180376       -0.1964127082
 C         -2.0559265912        2.1064868160       -0.3678325860
 C         -2.1795808775        3.2568302250       -1.1368557899
 C         -1.1017964895        4.1080138539       -1.3165357719
 C          0.1312213410        3.8094445992       -0.7643469778
 C          0.2634509386        2.6601370352        0.0032818146
 C         -0.8283228105        1.8385747275        0.2224151751
 H         -0.7036184194        0.9575079725        0.8357851063
 N          1.5468093172        2.2756864359        0.4910635347
 S          1.8812884310        0.6307678620        0.3873491287
 O          1.2544266373        0.1140776896       -0.8038404678
 O          1.5964281754       -0.0385922452        1.6398234232
 C          3.6470576651        0.6847913580        0.1454413981
 C          4.1179632781        1.2637703735       -1.0173301877
 C          5.4856698547        1.3365020810       -1.2245646819
 C          6.3563652122        0.8308820580       -0.2700724076
 C          5.8692013080        0.2504094038        0.8904959728
 C          4.5010144791        0.1766113386        1.1037853977
 H          4.0759038401       -0.2672601696        1.9896398070
 H          6.5475815368       -0.1439853899        1.6298356558
 H          7.4209360812        0.8885239481       -0.4334817372
 H          5.8677401362        1.7859111379       -2.1270220027
 H          3.4021619904        1.6359951474       -1.7319979028
 H          1.7633678635        2.6279051510        1.4126284966
 H          0.9871100033        4.4436695222       -0.9283396008
 H         -1.2176788707        4.9980041508       -1.9159387765
 H         -3.1236404639        3.4703454837       -1.6168366736
 H         -3.8789442533        1.2797264946       -1.0525971529
 C         -4.0036347174        1.3870294114        1.0705970366
 C         -3.4779072980        2.1751912994        2.2286328084
 C         -4.5498004154        2.7545029458        1.3583075719
 H         -5.5504185882        2.8351168789        1.7546292725
 H         -4.2706533197        3.5549170704        0.6903837421
 H         -3.7311882119        1.8353193149        3.2209679133
 H         -2.4804249735        2.5802644781        2.1528216426
 H         -4.6431613671        0.5452640478        1.3136776058
