  62
        -98.93685386
 C         -2.5766448045       -1.2307784499        0.2511136884
 C         -2.7357491556       -0.3852445957       -0.8711907661
 C         -3.8026877186        0.6308715117       -0.7824888257
 C         -4.5563557294        0.7029369287        0.3274446409
 C         -5.6462881584        1.6916784211        0.6351868847
 C         -5.0875658227        2.8876035727        1.4246631677
 C         -4.5240103046        4.0192722129        0.5660562445
 H         -5.3478174364        4.5403542268        0.0737577782
 H         -4.0432141330        4.7308816024        1.2411008696
 C         -3.5111083325        3.5912014571       -0.4992236595
 H         -2.9238319910        4.4694605188       -0.7745208026
 H         -2.8190959405        2.8598641635       -0.0772291345
 C         -4.1708080198        3.0199381360       -1.7633126466
 H         -3.7674170784        3.5277003992       -2.6420198996
 H         -5.2370326033        3.2445549754       -1.7402276276
 C         -3.9659492129        1.5141161359       -1.9899234075
 H         -4.7936233477        1.1283479049       -2.5944695888
 H         -3.0543365685        1.3561550627       -2.5747036442
 H         -5.8846516597        3.2999283593        2.0465407457
 H         -4.3107164506        2.5118557939        2.0955270154
 H         -6.1407955037        2.0168514782       -0.2752783336
 H         -6.3713578551        1.1693628705        1.2627757745
 O         -4.3734577603       -0.1308661161        1.3868399222
 C         -3.3961641208       -1.1043971794        1.3785403334
 O         -3.3552239378       -1.7952222541        2.4158676517
 H         -0.0152986618       -0.6358857062       -1.1210539765
 C          0.4853598547       -0.9491443670       -0.2167591502
 C         -0.1642592701       -1.8134766799        0.6527435755
 C          0.4913150945       -2.2022822830        1.8151561297
 C          1.7632029289       -1.7349984644        2.0964590954
 C          2.4048069523       -0.8688819711        1.2292448554
 C          1.7577266536       -0.4727266060        0.0661293309
 N          2.3876786136        0.4264312153       -0.8117157761
 S          3.9568620178        0.0926162297       -1.3027997432
 O          4.1162261009        0.7803133166       -2.5654714129
 O          4.2214689813       -1.3277032909       -1.3072434742
 C          4.9685672650        0.8968428778       -0.0776248636
 C          5.9459770166        0.1816044167        0.5860547392
 C          6.7333578631        0.8327693297        1.5230346756
 C          6.5309963978        2.1805532823        1.7772316441
 C          5.5458276052        2.8849895853        1.1010680538
 C          4.7562278058        2.2403152956        0.1624499186
 H          3.9827044875        2.7515634348       -0.3862106087
 H          5.3910543043        3.9328647073        1.3020956604
 H          7.1445160499        2.6854559324        2.5066041860
 H          7.4995786340        0.2869900840        2.0498162906
 H          6.0632980190       -0.8660988178        0.3592682140
 H          1.8113732575        0.6823796365       -1.6009054274
 H          3.3949611102       -0.5008829791        1.4437392519
 H          2.2601099571       -2.0466060188        3.0025259801
 H         -0.0078383725       -2.8684661947        2.5038753073
 C         -1.5416031362       -2.3431434367        0.3292086791
 H         -1.8588131021       -2.9768095839        1.1681925053
 C         -1.5008902321       -3.1992182815       -0.9230126757
 C         -0.9506525958       -4.5893584481       -0.8347512199
 C         -2.4202466516       -4.3757621676       -1.0379610257
 H         -2.8486770033       -4.6022796699       -2.0027787644
 H         -3.0837507846       -4.5738692272       -0.2084864638
 H         -0.6180015002       -4.9354068865        0.1321992788
 H         -0.3645207893       -4.9639171227       -1.6600357680
 H         -1.3015272454       -2.6355471887       -1.8248493706
 O         -2.0295842232       -0.4468652057       -1.9153253678
