  62
        -98.93973587
 C         -2.4868465510       -1.0521103639        0.3667797634
 C         -2.4584970425        0.1342782873        1.1468743663
 C         -3.5597294874        1.0796233782        0.9374879973
 C         -4.5402086691        0.7758111534        0.0680054881
 C         -5.7563558113        1.6112382976       -0.2273319993
 C         -5.5217032260        2.7140233274       -1.2683104942
 C         -4.6819833083        3.8963627288       -0.7835630159
 H         -4.7778578668        4.6860550953       -1.5312372716
 H         -5.0977382662        4.2783249197        0.1492385021
 C         -3.1922877260        3.5777954434       -0.5922342865
 H         -2.9450152249        2.6516934511       -1.1168667154
 H         -2.5881917817        4.3688437114       -1.0423025255
 C         -2.7517425576        3.4491781733        0.8663239602
 H         -2.8638015760        4.4122291449        1.3697471984
 H         -1.6907934504        3.1831263852        0.8813904438
 C         -3.5182062227        2.3880800266        1.6670665235
 H         -4.5282501017        2.7364627154        1.8828001578
 H         -2.9928858820        2.2256497189        2.6115318863
 H         -6.5016397776        3.0911817292       -1.5694711899
 H         -5.0508584192        2.2695287634       -2.1480084956
 H         -6.5147192596        0.9276524584       -0.6148190813
 H         -6.1270449842        2.0548485749        0.6971222002
 O         -4.5455327885       -0.3793378623       -0.6442007090
 C         -3.5166397876       -1.3062544573       -0.5398620704
 O         -3.6636155908       -2.2884123757       -1.2927491886
 O         -1.5591925517        0.3838298699        1.9954401638
 C         -1.3396259856       -2.0278503670        0.5681048271
 C         -0.2964947458       -1.8756078395       -0.5138627623
 C         -0.5530157705       -2.2393746800       -1.8320058002
 C          0.4231604880       -2.0874623230       -2.7993637659
 C          1.6662073852       -1.5735043334       -2.4752928061
 C          1.9347293526       -1.2111585583       -1.1601342645
 C          0.9529663634       -1.3647136370       -0.1909850024
 H          1.1643996675       -1.0618385783        0.8237264653
 N          3.2078613263       -0.7335961245       -0.8034964099
 S          3.3603234350        0.4248756743        0.4144380254
 O          3.1881477024       -0.2174172968        1.6926610487
 O          2.5082824650        1.5596427911        0.1352011035
 C          5.0752073814        0.8636340342        0.1983727231
 C          5.4100921423        2.0486739783       -0.4280745967
 C          6.7498799214        2.3561591323       -0.6085032742
 C          7.7259187082        1.4768056874       -0.1649511279
 C          7.3742008310        0.2909374007        0.4631011985
 C          6.0371005591       -0.0215204492        0.6482027800
 H          5.7159510867       -0.9256722766        1.1383679160
 H          8.1358579782       -0.3890615772        0.8090025250
 H          8.7674163351        1.7183054005       -0.3070695079
 H          7.0262592610        3.2786756094       -1.0931510575
 H          4.6168722682        2.7041622756       -0.7501829810
 H          3.7646570191       -0.4819215766       -1.6095374108
 H          2.4252709138       -1.4559315122       -3.2338420828
 H          0.2116464746       -2.3682524788       -3.8202095124
 H         -1.5282638042       -2.6206406213       -2.0917836739
 H         -0.8732155996       -1.7244442113        1.5160739151
 C         -1.7845537575       -3.4716735389        0.6960367415
 C         -0.8611656473       -4.4540496268        1.3493204126
 C         -2.1121893986       -4.0194991284        2.0509041553
 H         -2.9275354365       -4.7217124705        2.1383076168
 H         -2.0179064992       -3.3523381173        2.8956979050
 H         -0.8143824180       -5.4574990112        0.9554013821
 H          0.0825030897       -4.0802699505        1.7184227149
 H         -2.3828690152       -3.8160903123       -0.1368571332
