  62
        -98.93808931
 C          0.9643401191        1.4282178496       -0.9914367819
 C          2.2317310393        1.6679309304       -0.4083284027
 C          3.2472461299        0.6090733210       -0.5355717331
 C          2.9236340702       -0.5364894693       -1.1631595926
 C          3.7338294707       -1.7834119889       -1.4532392328
 C          5.0984135412       -1.9939636180       -0.8038541936
 C          5.0512037323       -2.2606224576        0.7009080865
 H          4.6261122130       -3.2546238478        0.8625049670
 H          6.0752205525       -2.2703626269        1.0809067559
 C          4.2255975622       -1.2740990079        1.5236198968
 H          4.2517799631       -1.6050305677        2.5659150968
 H          3.1799008521       -1.3111389786        1.2077857674
 C          4.7103159014        0.1737102723        1.4850416861
 H          4.1215624315        0.7366555622        2.2147510263
 H          5.7573260615        0.2185523030        1.7922754055
 C          4.5661181701        0.8824234719        0.1286941360
 H          4.5984004896        1.9612661120        0.3082445158
 H          5.3916583599        0.6360796823       -0.5347555344
 H          5.5386966315       -2.8746478078       -1.2795098537
 H          5.7529464306       -1.1561816576       -1.0256329742
 H          3.8585499501       -1.8095085491       -2.5415075029
 H          3.0825880914       -2.6257025992       -1.1967396922
 O          1.6935863499       -0.7215216702       -1.7203244318
 C          0.6797342594        0.2249958692       -1.6363908614
 O         -0.3778486207       -0.1334095215       -2.1832137807
 O          2.5116108591        2.7418233408        0.1921929968
 C         -0.0890197214        2.5041279690       -0.7878526615
 C         -0.7677234804        2.2752463289        0.5388341889
 C         -0.9001496105        3.2882230591        1.4801036388
 C         -1.4811167096        3.0278267090        2.7095493192
 C         -1.9312115086        1.7582850188        3.0243067698
 C         -1.8082413286        0.7392947187        2.0848900599
 C         -1.2433449195        1.0089703787        0.8486015295
 H         -1.1374078295        0.2149700586        0.1278175897
 N         -2.2768531177       -0.5513861915        2.3516552805
 S         -1.7182524474       -1.8788291314        1.5060775505
 O         -2.1988418063       -3.0081078215        2.2780135511
 O         -0.2871823376       -1.8340450506        1.3057973696
 C         -2.5968509984       -1.8267804023       -0.0402388890
 C         -3.8480475288       -1.2445016630       -0.0878253084
 C         -4.5358256295       -1.2365756337       -1.2898576979
 C         -3.9686733798       -1.8150159837       -2.4149109881
 C         -2.7167428195       -2.4035951529       -2.3477788388
 C         -2.0211543887       -2.4099743722       -1.1497216192
 H         -1.0345110984       -2.8373186016       -1.0640857197
 H         -2.2697881697       -2.8450793929       -3.2237454889
 H         -4.5034642104       -1.8036431742       -3.3516896978
 H         -5.5085651698       -0.7748559843       -1.3467209975
 H         -4.2582983585       -0.7987830431        0.8033329818
 H         -2.5351951970       -0.7526652015        3.3052302907
 H         -2.3675728179        1.5520532888        3.9894104001
 H         -1.5728954096        3.8196210391        3.4374129791
 H         -0.5232023412        4.2746749092        1.2540102683
 H          0.4735264981        3.4487082793       -0.7134723321
 C         -1.0658936822        2.6427533582       -1.9446479710
 C         -2.4790761818        2.1525020973       -1.8989182400
 C         -2.1984914327        3.6229603975       -1.8556377405
 H         -2.4324529136        4.2227682472       -2.7219204205
 H         -2.3416009624        4.1297326977       -0.9131665505
 H         -2.8835813821        1.7207862269       -2.8011485196
 H         -2.8239166710        1.6674973074       -0.9993673597
 H         -0.5642424327        2.5622331682       -2.9034771612
