  62
        -98.93481542
 C         -2.2739793562       -0.7455997598       -0.0830672773
 C         -3.5545727606       -1.1163036721        0.3843914301
 C         -4.7062853414       -0.3717537128       -0.1607742545
 C         -4.4776285710        0.5966458078       -1.0675760222
 C         -5.4788283876        1.5104606593       -1.7225715497
 C         -5.9569675204        2.6315376503       -0.7847622037
 C         -6.2716250118        2.1877907237        0.6416439362
 H         -5.3859606328        1.7184532724        1.0739338176
 H         -6.4818318899        3.0852421706        1.2294686173
 C         -7.4658748617        1.2471013964        0.7829329943
 H         -7.6199849830        1.0767014047        1.8515116366
 H         -8.3585712641        1.7416783789        0.3935833138
 C         -7.3297264376       -0.1148531686        0.0995494607
 H         -7.4792765629       -0.0309206227       -0.9733893476
 H         -8.1367710595       -0.7499044855        0.4765402697
 C         -6.0262405222       -0.8506147898        0.3947545559
 H         -6.1284832014       -1.8888422758        0.0562809123
 H         -5.8888463477       -0.9150007956        1.4801213438
 H         -6.8388127488        3.0983375539       -1.2265607559
 H         -5.1668377049        3.3844986713       -0.7312995591
 H         -4.9749799793        1.9645866250       -2.5786113005
 H         -6.3184220696        0.9343921024       -2.0998480490
 O         -3.2213855781        0.9155408236       -1.4953484335
 C         -2.0951828154        0.2679113654       -1.0229305672
 O         -1.0218027252        0.6774786037       -1.5067687280
 O         -3.7360367974       -2.0276999322        1.2371319858
 C         -1.0548704883       -1.4757543137        0.4479335511
 C         -0.0874292527       -0.4981653267        1.0677807371
 C         -0.5661531214        0.4275752590        1.9919921627
 C          0.2824733728        1.3484691176        2.5735376384
 C          1.6271557169        1.3661390400        2.2472645370
 C          2.1199923215        0.4347539767        1.3414120797
 C          1.2646647008       -0.4941371567        0.7638615499
 H          1.6712276296       -1.1995677709        0.0596710695
 N          3.4936830285        0.4007938469        1.0431222861
 S          4.0255546399       -0.0301222652       -0.4990993462
 O          3.4128040879        0.8082765588       -1.5049351426
 O          3.8738616107       -1.4532874168       -0.6670090269
 C          5.7567471275        0.3694113007       -0.3369759999
 C          6.2310488772        1.5628900760       -0.8471694741
 C          7.5731228405        1.8729183950       -0.6914524807
 C          8.4129173171        0.9901056866       -0.0294153513
 C          7.9225235812       -0.2045967542        0.4768150615
 C          6.5821603278       -0.5210387395        0.3234815889
 H          6.1580971327       -1.4405370963        0.6914490822
 H          8.5792693653       -0.8893824594        0.9885962355
 H          9.4567716770        1.2336455896        0.0902187626
 H          7.9574347054        2.7992979288       -1.0869522262
 H          5.5425193087        2.2137303390       -1.3621678109
 H          3.9751044467        1.2313265773        1.3615984905
 H          2.2893662340        2.0927333105        2.6931794656
 H         -0.1060197737        2.0653024248        3.2814683852
 H         -1.6192320232        0.4198697676        2.2394622036
 H         -1.4324607069       -2.1378204641        1.2421302483
 C         -0.4370780927       -2.3279902627       -0.6402733726
 C          0.3128729038       -3.5764164438       -0.2873125878
 C         -1.0308965001       -3.6696503668       -0.9436142198
 H         -1.0837804940       -3.9886253816       -1.9737754214
 H         -1.8724817685       -3.9840090329       -0.3436659393
 H          1.1915600726       -3.8263461958       -0.8631275251
 H          0.3848077133       -3.8348366175        0.7584073490
 H         -0.0788512743       -1.7382577145       -1.4783508653
