  62
        -98.93663695
 C         -2.6283553289       -0.4465781526        0.1540436283
 C         -2.2486112353       -1.2869758583       -0.9234749637
 C         -1.4331430176       -2.4603782109       -0.5907125318
 C         -1.1232265197       -2.6950850550        0.6967105796
 C         -0.1854419104       -3.7613818572        1.1872833003
 C          1.2700624028       -3.2884718963        0.9897948834
 C          2.0694986204       -4.1016906205       -0.0294771119
 H          2.9799687987       -3.5390243619       -0.2464653598
 H          2.3642582057       -5.0492603341        0.4274499166
 C          1.3549448846       -4.4202416682       -1.3464989363
 H          2.1211780101       -4.7538128225       -2.0495776034
 H          0.6775231019       -5.2632599716       -1.2000837664
 C          0.5705402520       -3.2667741694       -1.9856354256
 H          0.7150337002       -3.3136433575       -3.0672680568
 H          0.9557154785       -2.3006660405       -1.6546751953
 C         -0.9484057382       -3.3123096978       -1.7293791469
 H         -1.2694633890       -4.3472780837       -1.5819421022
 H         -1.4657731494       -2.9252456563       -2.6120186573
 H          1.7959838955       -3.3236594967        1.9458706985
 H          1.2529108062       -2.2371337301        0.6891508091
 H         -0.3923888063       -3.9172278333        2.2464303721
 H         -0.3653461407       -4.6911154388        0.6520676740
 O         -1.5708426794       -1.9149453281        1.7128862852
 C         -2.2723404571       -0.7389031324        1.4710014532
 O         -2.5163935928       -0.0858876459        2.5042548919
 O         -2.5746246110       -1.0518620304       -2.1202207284
 C         -3.2786203489        0.8699238676       -0.2228959456
 C         -2.2210387807        1.9201669674       -0.5021861059
 C         -2.5136008040        3.0335827297       -1.2841162455
 C         -1.5300948491        3.9559815780       -1.5914393158
 C         -0.2285804136        3.7747042363       -1.1567296720
 C          0.0715934809        2.6721930587       -0.3661417196
 C         -0.9295282280        1.7763231890       -0.0226760986
 H         -0.6735714333        0.9370559645        0.6056641402
 N          1.3749378703        2.4369451611        0.1011541618
 S          1.8620621343        0.8298034542        0.3018915099
 O          1.4159020033        0.0247799968       -0.8121582625
 O          1.4725575000        0.3864247267        1.6169065456
 C          3.6331617430        1.0271045308        0.2426386571
 C          4.3127891856        0.7280016029       -0.9227416370
 C          5.6858796441        0.9143543563       -0.9645883293
 C          6.3510377071        1.3976401042        0.1520483315
 C          5.6551482380        1.6927073506        1.3153185510
 C          4.2828178126        1.5066451830        1.3645665731
 H          3.7001664834        1.7107750522        2.2478511917
 H          6.1758411487        2.0652363961        2.1826086885
 H          7.4191646255        1.5425006713        0.1168537151
 H          6.2293661365        0.6819016782       -1.8661089769
 H          3.7529408100        0.3486554520       -1.7626403897
 H          2.0749956506        2.9879890566       -0.3764363091
 H          0.5461653696        4.4759030091       -1.4263150803
 H         -1.7720425004        4.8139316690       -2.1999316987
 H         -3.5149446521        3.1647699125       -1.6637325778
 H         -3.7959738955        0.6785335146       -1.1751121338
 C         -4.2947601932        1.3823503476        0.7777989982
 C         -5.5152606837        2.1113900333        0.3033488691
 C         -5.6393506064        0.7258750711        0.8595822459
 H         -6.0830594985        0.5889347955        1.8336981772
 H         -5.8376672865       -0.0838784333        0.1724221971
 H         -5.8799367393        2.9373542725        0.8941187839
 H         -5.6511104892        2.2341024946       -0.7604150258
 H         -3.8476242875        1.7016242494        1.7107064211
