  62
        -98.93653698
 C          1.7924750226        1.2287955419       -0.1356196664
 C          2.4409975088        0.5618613181        0.9272456904
 C          3.6237399857       -0.2478478349        0.5808538254
 C          3.9880650482       -0.3486932044       -0.7103362168
 C          5.1494514656       -1.1024808759       -1.3076362038
 C          5.4022039665       -2.5206595487       -0.7728838118
 C          6.6671253361       -2.6331586473        0.0801170423
 H          7.0120687495       -3.6693736816        0.0581317405
 H          7.4482779495       -2.0205816637       -0.3748434062
 C          6.5007121689       -2.2332519197        1.5451749768
 H          5.9146458516       -2.9956591202        2.0632031745
 H          7.4941690166       -2.2235279480        1.9996595745
 C          5.8400274484       -0.8736416757        1.7814554132
 H          6.1359138118       -0.5272342248        2.7739559318
 H          6.2089749548       -0.1399655225        1.0656548468
 C          4.3052989795       -0.9204761796        1.7414980941
 H          3.8995289056       -0.4210822453        2.6269406154
 H          3.9626433282       -1.9579416151        1.8000239457
 H          4.5348006505       -2.8667258566       -0.2127049117
 H          5.5156670661       -3.1843092408       -1.6317099007
 H          4.9390346305       -1.1422986110       -2.3788723339
 H          6.0514209917       -0.4965765951       -1.1905090207
 O          3.3105609348        0.2870352207       -1.7090199528
 C          2.2077029312        1.0863420858       -1.4588827442
 O          1.6991910645        1.5950611920       -2.4746348346
 O          2.0470026258        0.6354056133        2.1239154586
 C          0.5811853922        2.0923327294        0.1650344957
 C         -0.6431339063        1.5232254415       -0.5094836305
 C         -1.5437271684        2.2884793294       -1.2378551762
 C         -2.6471772767        1.6980587063       -1.8311144957
 C         -2.8829104359        0.3422260930       -1.7036337819
 C         -1.9981309715       -0.4294502639       -0.9598371654
 C         -0.8958071136        0.1638879238       -0.3654544297
 H         -0.2072946220       -0.4405032709        0.2122863898
 N         -2.2375902683       -1.8053197610       -0.8051733108
 S         -3.7974948042       -2.2902187486       -0.4418919108
 O         -3.6492260666       -3.5332784678        0.2823763081
 O         -4.5786970166       -2.3585787275       -1.6517459043
 C         -4.4484514956       -1.0161013250        0.6244747455
 C         -5.5734482794       -0.3110919718        0.2484778231
 C         -6.0431677624        0.6941773450        1.0786610530
 C         -5.3800227739        0.9783844059        2.2620850493
 C         -4.2525496057        0.2586885186        2.6277556630
 C         -3.7801626371       -0.7490571895        1.8031035035
 H         -2.9078261226       -1.3277431365        2.0626685448
 H         -3.7365987491        0.4805609965        3.5482279521
 H         -5.7425375482        1.7646005203        2.9052698007
 H         -6.9206397147        1.2539219533        0.7979564892
 H         -6.0550661525       -0.5622467925       -0.6824510595
 H         -1.5604261195       -2.2777588755       -0.2251891031
 H         -3.7280847933       -0.1336310764       -2.1738784419
 H         -3.3319960527        2.3033146449       -2.4048634830
 H         -1.3777691921        3.3468479995       -1.3509282942
 H          0.4336878925        2.0165040238        1.2527687183
 C          0.8568569242        3.5380689592       -0.1890568990
 C          0.1672234667        4.6420928526        0.5537249001
 C          1.6258563475        4.3845582502        0.7792701484
 H          2.3438342163        5.0906152082        0.3897760562
 H          1.9283371911        3.9244280573        1.7087445201
 H         -0.1160063654        5.5305707071        0.0099473069
 H         -0.5223115835        4.3636936877        1.3360080993
 H          1.0604823721        3.6762937051       -1.2448093624
