  62
        -98.93538091
 C         -1.5806660568       -0.9343269005        0.7007765452
 C         -2.5291847174       -1.1168713587       -0.3365905566
 C         -3.8599597118       -0.5398644445       -0.0905057942
 C         -4.1247271473        0.0811932338        1.0714907818
 C         -5.4397813593        0.6915316665        1.4742645588
 C         -5.6535665567        2.1169554222        0.9469705761
 C         -5.9339262789        2.2207078234       -0.5528123388
 H         -6.7485234125        1.5454068414       -0.8162861891
 H         -6.2796098238        3.2386153904       -0.7439219744
 C         -4.7177231838        1.9368866042       -1.4457183983
 H         -3.8037948825        2.0071787735       -0.8506595822
 H         -4.6504567688        2.7017008008       -2.2228616696
 C         -4.7488492816        0.5788581829       -2.1471870148
 H         -5.5840033319        0.5496633561       -2.8505104759
 H         -3.8228191554        0.4674804140       -2.7169497858
 C         -4.8680571289       -0.6196928168       -1.1971157552
 H         -5.8770888335       -0.6785860973       -0.7899822727
 H         -4.6645633498       -1.5296897031       -1.7664623665
 H         -4.7747288050        2.7167819247        1.1958572467
 H         -6.5060082185        2.5388360894        1.4845467946
 H         -6.2580237778        0.0523637829        1.1412326414
 H         -5.4455762692        0.7240223432        2.5659812899
 O         -3.1954342354        0.2089758778        2.0567265097
 C         -1.9082698276       -0.2694354529        1.8860709969
 O         -1.1551697210       -0.0552501399        2.8598150953
 H          1.1862532320        0.8451156572        0.5920329270
 C          1.2040113258        0.3882799305       -0.3868008779
 C          0.5439263645       -0.8180996789       -0.5973504614
 C          0.5439566725       -1.3418608863       -1.8857525258
 C          1.1937126787       -0.6815265907       -2.9143662430
 C          1.8823636448        0.4958073770       -2.6868112650
 C          1.8826180890        1.0364367555       -1.4074386699
 N          2.5898803647        2.2146832594       -1.1124405939
 S          3.4874988393        2.2405355598        0.3024651806
 O          2.6434578163        2.5675911780        1.4238985557
 O          4.5639575993        3.1703148024        0.0330516505
 C          4.1242337290        0.5800280395        0.4545018835
 C          3.6727162588       -0.2490766619        1.4606659143
 C          4.1228089171       -1.5592148995        1.5014920950
 C          5.0141996591       -2.0138510432        0.5425731750
 C          5.4704699783       -1.1643199758       -0.4538593939
 C          5.0192739671        0.1441805180       -0.5031690368
 H          5.3547986594        0.8343758223       -1.2601028522
 H          6.1690008749       -1.5194638839       -1.1941136338
 H          5.3554197252       -3.0364010543        0.5740732947
 H          3.7666179599       -2.2187163364        2.2764848144
 H          2.9767921333        0.1381370022        2.1883923785
 H          3.1143794541        2.5924535415       -1.8883398245
 H          2.4037093080        0.9967263655       -3.4881002877
 H          1.1721756516       -1.1011527411       -3.9086407565
 H          0.0042776917       -2.2450589677       -2.1041967592
 C         -0.1399131639       -1.4251822554        0.6031152420
 H          0.3489536565       -0.9783117497        1.4826210404
 C         -0.0370672442       -2.9297351343        0.8265849915
 C         -0.5022017176       -3.9931551240       -0.1203161503
 C          0.9629257030       -3.8067894032        0.1353589965
 H          1.4753902074       -4.5539062250        0.7226279948
 H          1.5675091264       -3.3636298106       -0.6401336039
 H         -0.9299400763       -3.6921789496       -1.0615351464
 H         -0.9893116052       -4.8573685664        0.3096378412
 H         -0.2158101517       -3.1463921340        1.8774297541
 O         -2.3058686030       -1.7253841570       -1.4114370525
