  62
        -98.93811998
 C         -2.5254451808       -0.9992482395        0.2986958793
 C         -2.5378288004       -0.0571619193       -0.7567777306
 C         -2.9379136399        1.3175914008       -0.4067936604
 C         -3.2783963499        1.6132501807        0.8582864096
 C         -3.7444974394        2.9285700908        1.4307895998
 C         -3.0180531189        4.2020321606        0.9779293200
 C         -1.5178780590        4.0328964401        0.6952512501
 H         -0.9649729687        4.8047623598        1.2340830002
 H         -1.1649100393        3.0667227299        1.0616475700
 C         -1.1690967188        4.1573760802       -0.7895571499
 H         -0.1041916487        4.3858988698       -0.8811904098
 H         -1.7269415585        4.9936868104       -1.2178134298
 C         -1.4240377792        2.9009694504       -1.6198354501
 H         -1.2113552891        3.1384455604       -2.6657262700
 H         -0.7128827195        2.1248251101       -1.3189544501
 C         -2.8461434195        2.3220726109       -1.5190622803
 H         -3.5841840592        3.1131207911       -1.4106597202
 H         -3.0551455496        1.7745447511       -2.4421342203
 H         -3.1560994187        4.9399111005        1.7700320201
 H         -3.5021664687        4.6025451509        0.0883197600
 H         -4.8122626894        3.0323746512        1.2164797497
 H         -3.6428764095        2.8162666506        2.5128960298
 O         -3.2805318803        0.6695092706        1.8414064295
 C         -2.8845240308       -0.6311537896        1.5987254693
 O         -2.9054990911       -1.3661350497        2.6064618492
 H         -0.3234215008       -1.2665932901       -1.5739626506
 C          0.1930001590       -1.7513919704       -0.7587196607
 C         -0.5363464813       -2.4372674302        0.2021987192
 C          0.1512369684       -3.0361220006        1.2511280692
 C          1.5293401584       -2.9372479512        1.3397826093
 C          2.2466086287       -2.2161412713        0.4007322094
 C          1.5658049390       -1.6153649109       -0.6486303106
 N          2.2778429594       -0.7902506310       -1.5600764004
 S          2.5160966699        0.7512128188       -0.9066340102
 O          1.4313779000        1.1257993391       -0.0266006502
 O          2.7666337303        1.6267860089       -2.0306842800
 C          4.0152267498        0.5407447281        0.0281226399
 C          5.1962494398        0.3614149278       -0.6655503600
 C          6.3677790296        0.1652326072        0.0478144300
 C          6.3376105196        0.1499367670        1.4345704400
 C          5.1438080796        0.3326103274        2.1158697999
 C          3.9682418997        0.5297621679        1.4079064799
 H          3.0156995497        0.6713517282        1.8936075499
 H          5.1216212295        0.3199609372        3.1937621099
 H          7.2500031095       -0.0049924134        1.9885182400
 H          7.2982316196        0.0236152169       -0.4779053200
 H          5.1713557798        0.3860182879       -1.7422151500
 H          1.7789282995       -0.6789447807       -2.4338326804
 H          3.3166965988       -2.1099419717        0.4767910495
 H          2.0481259582       -3.4091826515        2.1600962992
 H         -0.4066825319       -3.5583978205        2.0148031890
 C         -2.0452759413       -2.4370948097        0.1447880691
 H         -2.4180556816       -2.9731741796        1.0277260990
 C         -2.5666756315       -3.1327985693       -1.0958139410
 C         -2.5802630121       -4.6305455693       -1.1326617712
 C         -3.8680474218       -3.8712182988       -1.0280825812
 H         -4.5223895717       -3.8385888084       -1.8861326612
 H         -4.3896571619       -3.8778886588       -0.0819474412
 H         -2.3484236822       -5.1238754692       -2.0639675713
 H         -2.2302115723       -5.1554840795       -0.2567739913
 H         -2.3434907013       -2.6065180892       -2.0140716409
 O         -2.2398298104       -0.3218676593       -1.9539433106
