  62
        -98.94389857
 C         -1.7865352872       -1.1910511082        0.3848742944
 C         -1.9628274281       -0.2576766563       -0.6646613061
 C         -3.3513763538       -0.0391425025       -1.0979427710
 C         -4.3438827193       -0.7322485741       -0.5105944841
 C         -5.8039899789       -0.5663581871       -0.8154743533
 C         -6.4465391722        0.4814574364        0.1042112682
 C         -5.6665976191        1.7938462124        0.1847284931
 H         -6.2284531060        2.4670510339        0.8358331728
 H         -4.7040663379        1.6094013137        0.6675637899
 C         -5.4282169294        2.4746027132       -1.1703188621
 H         -6.1208768789        2.0760995696       -1.9124973167
 H         -5.6401119424        3.5410744404       -1.0687728372
 C         -3.9971312366        2.3541523768       -1.6980672962
 H         -3.2911218100        2.6654615127       -0.9233586456
 H         -3.8844640110        3.0458794946       -2.5373845616
 C         -3.5830200808        0.9627596236       -2.1936630607
 H         -4.3205002718        0.5918152143       -2.9084799587
 H         -2.6243542215        1.0678400023       -2.7105232676
 H         -7.4590074621        0.6794816092       -0.2521365708
 H         -6.5160441146        0.0626661873        1.1107734356
 H         -5.9215076182       -0.2725648461       -1.8565940133
 H         -6.2992648322       -1.5261079913       -0.6593717286
 O         -4.1310999562       -1.6393761125        0.4766509768
 C         -2.8551302075       -1.8793411757        0.9594724273
 O         -2.8031084085       -2.7129626727        1.8862425189
 H          2.0712843206       -0.3333244623        0.4129775205
 C          1.4806570535        0.2355305342        1.1100410684
 C          0.2120952830       -0.1945935680        1.4646611954
 C         -0.5179786069        0.5641245495        2.3768866785
 C          0.0050208543        1.7259966718        2.9087316240
 C          1.2672050942        2.1590194990        2.5398692359
 C          2.0068000409        1.4090614811        1.6351080779
 N          3.3077191186        1.7959355840        1.2731833024
 S          3.7505327817        1.8047197428       -0.3455954002
 O          4.9303030546        2.6447808056       -0.3816666545
 O          2.6606191231        2.2106164405       -1.2001241787
 C          4.2390955679        0.1302302850       -0.6973096543
 C          5.1871370331       -0.4629145694        0.1131221065
 C          5.6020724871       -1.7525054294       -0.1776021993
 C          5.0709057879       -2.4197463334       -1.2713720539
 C          4.1213760739       -1.8085614868       -2.0766496870
 C          3.6988901835       -0.5199236146       -1.7890152918
 H          2.9522903603       -0.0107877043       -2.3785194394
 H          3.7057458854       -2.3295359582       -2.9247403989
 H          5.3954715175       -3.4234190542       -1.4973703743
 H          6.3373935790       -2.2334905760        0.4468781104
 H          5.5800901442        0.0912983477        0.9488487113
 H          3.6329472740        2.6360047644        1.7309105812
 H          1.6758576437        3.0702234778        2.9503130468
 H         -0.5746002223        2.3040251593        3.6129983220
 H         -1.5054002446        0.2263878502        2.6626750442
 C         -0.3968501030       -1.4681920178        0.9299192404
 H         -0.5395269038       -2.1537603750        1.7783922652
 C          0.4575965987       -2.1592204223       -0.1116149987
 C          1.5605587505       -3.0779276689        0.3183675538
 C          0.3146583358       -3.6388310926       -0.2969313004
 H          0.3664356466       -4.0394717195       -1.2979855730
 H         -0.3897403781       -4.1516016946        0.3420872974
 H          2.4723161749       -3.0950127606       -0.2590087302
 H          1.7062928776       -3.2161172407        1.3789412227
 H          0.6060401907       -1.5548367093       -0.9994155978
 O         -1.0136082774        0.3609980365       -1.2132922681
