  62
        -98.94022692
 C          2.4427981337        0.9049073390       -0.0203432553
 C          2.6783608994       -0.4642053393        0.2520903557
 C          4.0586425123       -0.8098284322        0.6158675935
 C          4.9914855509        0.1561967474        0.6999639283
 C          6.4332746154       -0.0351777982        1.0859323504
 C          7.3392949212       -0.4638789587       -0.0763709527
 C          7.1556462861       -1.9077530178       -0.5450573431
 H          7.9926757170       -2.1387152975       -1.2069049014
 H          7.2235494346       -2.5782110909        0.3121607627
 C          5.8442401886       -2.1660187569       -1.3000981553
 H          5.4175571988       -1.2147473476       -1.6266101985
 H          6.0510112243       -2.7488937543       -2.2005043266
 C          4.7906368700       -2.9304377007       -0.4983068503
 H          3.8927036908       -3.0247939163       -1.1144778892
 H          5.1554884380       -3.9362942544       -0.2787189913
 C          4.3898477048       -2.2572197922        0.8209780631
 H          5.1867662337       -2.3660103472        1.5562802493
 H          3.4916615520       -2.7511836247        1.1996742642
 H          7.1754648256        0.2156868972       -0.9158426630
 H          8.3731093563       -0.3405539775        0.2543080394
 H          6.5026399681       -0.7662975839        1.8917587135
 H          6.7850303320        0.9291184486        1.4588467242
 O          4.7154636744        1.4657623813        0.4564936920
 C          3.4464784596        1.8683789512        0.0742987908
 O          3.3375599160        3.0935223304       -0.1384870441
 O          1.7866462916       -1.3508210901        0.1995980448
 C          1.0574380258        1.3651402026       -0.4325845807
 C          0.0393735125        0.9978814974        0.6200385455
 C          0.3216546279        1.2638913735        1.9578735995
 C         -0.5940305967        0.9621882524        2.9467156803
 C         -1.8199238941        0.4071799628        2.6232116289
 C         -2.1131833301        0.1410643780        1.2917335615
 C         -1.1854814586        0.4344961475        0.3011878888
 H         -1.4424194420        0.2170933369       -0.7218212884
 N         -3.3400565152       -0.4380337708        0.9293725267
 S         -4.0553299646        0.0440125777       -0.5221951196
 O         -3.4987463298       -0.7313047674       -1.6019046455
 O         -3.9766135964        1.4809062513       -0.6594340116
 C         -5.7426305669       -0.4568757949       -0.2316476711
 C         -6.0871475654       -1.7803775292       -0.4324184265
 C         -7.3898149119       -2.1791804068       -0.1786324817
 C         -8.3210751138       -1.2538991044        0.2693716467
 C         -7.9612885245        0.0711547266        0.4640314005
 C         -6.6597219096        0.4765491483        0.2133857744
 H         -6.3368733213        1.4971854719        0.3420729159
 H         -8.6883057616        0.7886502423        0.8089205647
 H         -9.3344439352       -1.5670174211        0.4651331580
 H         -7.6740854582       -3.2077389423       -0.3319286674
 H         -5.3320611705       -2.4610676523       -0.7898541408
 H         -4.0068619219       -0.4549201120        1.6888541974
 H         -2.5380679321        0.1758144665        3.3952163520
 H         -0.3562022924        1.1698307235        3.9793339702
 H          1.2749050314        1.7092023933        2.2106076059
 H          1.1028304512        2.4636109230       -0.4872878434
 C          0.7183632880        0.8260503868       -1.8069163724
 C         -0.2247333069        1.5722284346       -2.7004232488
 C          1.2389113657        1.5343866615       -3.0197827720
 H          1.5687567812        0.9435835779       -3.8611148908
 H          1.8210087622        2.4301880005       -2.8577798693
 H         -0.9070540771        1.0048930020       -3.3163660801
 H         -0.6432138976        2.4949195948       -2.3263637254
 H          0.6912965448       -0.2579588721       -1.8328692542
