  62
        -98.94267401
 C         -2.0771143601       -0.8476164337        0.7136485740
 C         -2.8975484615       -1.0361736873       -0.4255545801
 C         -4.2761016618       -0.5332197023       -0.3143068830
 C         -4.6762446303        0.0721904435        0.8175759339
 C         -6.0310984544        0.6790518428        1.0363239278
 C         -6.0499467214        2.1603962192        0.6341134745
 C         -5.4553463095        2.4338834051       -0.7474694389
 H         -5.5512474307        3.5054496144       -0.9359834107
 H         -4.3868069877        2.2067668117       -0.7274222815
 C         -6.1180510622        1.6522194535       -1.8903945627
 H         -6.2866132799        2.3326967118       -2.7277539074
 H         -7.0939395087        1.2847399018       -1.5708192687
 C         -5.2868290169        0.4847025689       -2.4251444994
 H         -5.7407032046        0.1449871638       -3.3599196772
 H         -4.2769570637        0.8312312095       -2.6586355751
 C         -5.1772173170       -0.7340999301       -1.5004654950
 H         -6.1738146662       -1.0431249581       -1.1790150563
 H         -4.7338845802       -1.5495948398       -2.0791276810
 H         -5.4762696136        2.7270203253        1.3713913069
 H         -7.0826484276        2.5128071689        0.6640654694
 H         -6.7687017695        0.1258197712        0.4581382354
 H         -6.2776957559        0.5966885543        2.0962806706
 O         -3.8605954700        0.2419562336        1.8892399506
 C         -2.5523495295       -0.2053628191        1.8617058062
 O         -1.9158248179        0.0165624799        2.9125527243
 H          1.2791510165        0.2053703762        1.9266143079
 C          1.2382640634        0.3575074379        0.8561977723
 C          0.2926435895       -0.3273320011        0.1065924515
 C          0.2430872056       -0.1091742735       -1.2659786849
 C          1.1133007212        0.7835634564       -1.8651290785
 C          2.0565981744        1.4636841145       -1.1151703473
 C          2.1180362535        1.2475111008        0.2548688207
 N          3.1030186414        1.9085981559        1.0119488397
 S          4.6773222965        1.7716072220        0.4482875068
 O          5.5155001865        1.8705605624        1.6223331174
 O          4.9096369105        2.7584272294       -0.5762109818
 C          4.7587979312        0.1336484016       -0.2556681086
 C          4.9199604306       -0.0249878499       -1.6166803926
 C          4.9114036140       -1.3049113386       -2.1476479390
 C          4.7374132165       -2.3975343638       -1.3131081583
 C          4.5834597195       -2.2223956963        0.0536359826
 C          4.5918850546       -0.9454445446        0.5898464065
 H          4.4805050081       -0.7742446965        1.6487340490
 H          4.4511076955       -3.0751104498        0.7001930495
 H          4.7228122944       -3.3926802884       -1.7285911114
 H          5.0335160681       -1.4446533536       -3.2095987458
 H          5.0487093647        0.8516261963       -2.2301616710
 H          3.0554365813        1.7107580856        2.0009691640
 H          2.7442062055        2.1606143056       -1.5666617397
 H          1.0595085665        0.9499734416       -2.9301708990
 H         -0.4933145265       -0.6351132371       -1.8534080142
 C         -0.6302219917       -1.3099505700        0.7871509919
 H         -0.3805992897       -1.3126452790        1.8567365689
 C         -0.4094726487       -2.7087829203        0.2434513554
 C          0.8425524068       -3.4364301342        0.6271534114
 C         -0.4803694271       -3.8782725563        1.1758883686
 H         -0.9101253029       -4.7999127900        0.8133638444
 H         -0.6957818618       -3.6776603494        2.2156915640
 H          1.5260610511       -2.9332761942        1.2944299638
 H          1.3248860314       -4.0547342294       -0.1135501157
 H         -0.7880697408       -2.8471748629       -0.7597485391
 O         -2.5251692828       -1.5940864153       -1.4908538956
