  62
        -98.93747737
 C          2.2803863947       -0.5073110625        0.2975474914
 C          3.5357550960       -0.9263444590        0.8086911081
 C          4.7050105934       -0.6340082448       -0.0271867709
 C          4.5345754565       -0.0590222663       -1.2310293715
 C          5.6238367729        0.2850593201       -2.2103207707
 C          6.3053325508        1.6327303435       -1.9359113039
 C          7.2318989166        1.6578671168       -0.7195664051
 H          7.9419462490        0.8331563640       -0.7878728037
 H          7.8041849429        2.5861347668       -0.7725004770
 C          6.5054796426        1.6034991256        0.6317779245
 H          5.4522116798        1.8574393464        0.4895659265
 H          6.9264486259        2.3557956391        1.3026679127
 C          6.5981935890        0.2557224891        1.3476753170
 H          6.0192215190        0.3185177126        2.2728844881
 H          7.6377005968        0.0537287670        1.6149305188
 C          6.0632969409       -0.9296271614        0.5332996280
 H          6.7590434595       -1.1816139321       -0.2665611612
 H          5.9674345722       -1.7897458111        1.2003897049
 H          5.5335496889        2.3976086120       -1.8220284493
 H          6.8950692286        1.8851930049       -2.8201408416
 H          5.1528528746        0.3310289228       -3.1945223969
 H          6.3724005798       -0.5076534638       -2.2191767237
 O          3.3076178810        0.2630672972       -1.7178947293
 C          2.1528208976        0.0697729189       -0.9668943755
 O          1.1147335150        0.4400827420       -1.5453092883
 O          3.6711093344       -1.5231120424        1.9098767968
 C          1.0574617723       -0.7534314483        1.1615984712
 C         -0.0675667836       -1.3366085024        0.3459231554
 C          0.0984012358       -2.5997728161       -0.2171185020
 C         -0.9061792217       -3.1756419652       -0.9695320632
 C         -2.1058869830       -2.5128823319       -1.1612477889
 C         -2.2781408426       -1.2489120276       -0.6109125550
 C         -1.2622717998       -0.6683987006        0.1356912517
 H         -1.4169691522        0.3211104083        0.5322436191
 N         -3.4715961336       -0.5371245998       -0.8102408469
 S         -4.0384275344        0.4469476860        0.4367443736
 O         -3.4147417361        1.7427775582        0.3442732273
 O         -3.9045062701       -0.2355471659        1.7048382385
 C         -5.7596617924        0.5765714706       -0.0141236519
 C         -6.6795911957       -0.2730286616        0.5709619186
 C         -8.0095724009       -0.1860409738        0.1904010316
 C         -8.3946300015        0.7414927127       -0.7659204073
 C         -7.4601084351        1.5882024262       -1.3436358138
 C         -6.1289839902        1.5075917782       -0.9666257508
 H         -5.3691079346        2.1497561038       -1.3808421593
 H         -7.7632677432        2.3102052048       -2.0846227489
 H         -9.4300008422        0.8073556264       -1.0607892152
 H         -8.7388625710       -0.8401087481        0.6404747219
 H         -6.3357336640       -0.9720516606        1.3162943176
 H         -4.2077931789       -1.1007477195       -1.2123289708
 H         -2.8948572197       -2.9640219249       -1.7438006864
 H         -0.7598736563       -4.1537386930       -1.4029002744
 H          1.0338032072       -3.1205587731       -0.0612105708
 H          1.3829226286       -1.5222737410        1.8834931754
 C          0.6278282101        0.4537262990        1.9820268558
 C          1.6314122513        1.4471151225        2.4836559212
 C          0.6440966028        1.8462781529        1.4302463264
 H         -0.1652246203        2.5101776338        1.6992283457
 H          0.9912008436        1.9787570669        0.4171800447
 H          1.5100563030        1.8412679842        3.4813401803
 H          2.6616828090        1.3071465563        2.1900746613
 H         -0.1899663970        0.2124248675        2.6560968620
