  62
        -98.94496340
 C          1.8837756024        0.7289698155       -0.1549545824
 C          2.4481116598        0.0904311019        0.9744943723
 C          3.5159330932       -0.8797014400        0.6989746868
 C          3.8576220599       -1.1354429907       -0.5773538346
 C          4.9597913220       -2.0623268920       -0.9995589166
 C          6.2912161725       -1.3120048181       -1.1443874049
 C          6.6377761747       -0.4312811425        0.0561131697
 H          7.6105185357        0.0229443417       -0.1441836017
 H          5.9111658470        0.3816003719        0.1232069713
 C          6.6880575859       -1.1770009514        1.3969700322
 H          7.5802695754       -0.8597013473        1.9408255636
 H          6.7806445186       -2.2494413628        1.2214735022
 C          5.4916261296       -0.9149829747        2.3135508004
 H          5.3390881125        0.1622431722        2.4171367706
 H          5.7303896072       -1.3085724848        3.3051826413
 C          4.1651433817       -1.5498344706        1.8773444210
 H          4.3129717545       -2.6143055032        1.6832027701
 H          3.4592649166       -1.4471850800        2.7069904666
 H          7.0845813124       -2.0449318040       -1.3019508535
 H          6.2350400690       -0.6761094154       -2.0309158099
 H          5.0584333979       -2.8605305906       -0.2662494690
 H          4.6915115582       -2.4983829632       -1.9634124976
 O          3.2591391143       -0.5383159622       -1.6391334660
 C          2.2642246237        0.4126849272       -1.4595239268
 O          1.8089542974        0.8854551698       -2.5170663823
 O          2.0703416442        0.3156204055        2.1567194811
 C          0.7923867427        1.7630082635        0.0553580334
 C         -0.4909538858        1.2997315661       -0.5893628911
 C         -1.2707717279        2.1013670001       -1.4116792865
 C         -2.4328037659        1.6044663190       -1.9780240799
 C         -2.8473561768        0.3096384933       -1.7299946277
 C         -2.0861800981       -0.4937346994       -0.8891894908
 C         -0.9250520691        0.0065075389       -0.3216202771
 H         -0.3320112471       -0.6226009361        0.3307991939
 N         -2.5073167161       -1.8051276912       -0.6135893029
 S         -4.1269659536       -2.0589017594       -0.2792247616
 O         -4.1592052870       -3.2347035508        0.5622195867
 O         -4.8694549719       -2.1489794650       -1.5118597378
 C         -4.6500832778       -0.6186000728        0.6350341089
 C         -4.0079312115       -0.3336500567        1.8239023404
 C         -4.3790587251        0.7979959375        2.5313824222
 C         -5.3809766280        1.6214716754        2.0404842041
 C         -6.0197763730        1.3187044731        0.8482839229
 C         -5.6512652820        0.1889401771        0.1354161279
 H         -6.1190586615       -0.0823593165       -0.7969023158
 H         -6.7997730739        1.9594776973        0.4699396740
 H         -5.6645544222        2.5035629748        2.5925322936
 H         -3.8822667632        1.0344359327        3.4587558929
 H         -3.2350429513       -0.9953248257        2.1817292491
 H         -1.9132268206       -2.3024395332        0.0327478545
 H         -3.7376044646       -0.0975097539       -2.1810850849
 H         -3.0216392677        2.2343198663       -2.6269610058
 H         -0.9637244061        3.1125156809       -1.6208314216
 H          0.6319619589        1.7982841797        1.1433587994
 C          1.2541163345        3.1266734879       -0.4127197986
 C          0.7054508243        4.3684132792        0.2221847623
 C          2.1172558303        3.9480340381        0.4960991476
 H          2.9227524160        4.5219569114        0.0629883979
 H          2.3503860085        3.5342868354        1.4665506999
 H          0.5426650708        5.2362413890       -0.3988068211
 H         -0.0204962740        4.2470540905        1.0115910168
 H          1.4823382482        3.1478165034       -1.4723658347
