  62
        -98.93617294
 C          1.5279821207        1.3163933398        0.4189771204
 C          1.8300076808        0.1147753797        1.1262107602
 C          3.1358576209       -0.5006870701        0.8729687302
 C          3.9908132209        0.0854896902        0.0174501004
 C          5.3817456510       -0.3813395695       -0.3149617196
 C          5.4366490812       -1.4656112893       -1.3996019498
 C          4.9509495714       -2.8475441394       -0.9610495701
 H          5.2468776916       -3.5528486092       -1.7402280003
 H          5.4675915613       -3.1390275296       -0.0459646301
 C          3.4332892814       -2.9475560297       -0.7536790603
 H          3.0617613415       -3.8552928396       -1.2341603305
 H          2.9421495113       -2.1026345396       -1.2417420402
 C          2.9932968312       -2.9964105701        0.7094777096
 H          1.9020841512       -3.0209449202        0.7340637095
 H          3.3660653913       -3.9116256301        1.1748930195
 C          3.4539715110       -1.7991873702        1.5506954599
 H          2.9168950209       -1.8187763805        2.5021828499
 H          4.5229059010       -1.8689140101        1.7527042700
 H          6.4777572013       -1.5537718391       -1.7188292197
 H          4.8529206913       -1.1294815892       -2.2596396498
 H          5.9253528509        0.4946385506       -0.6758478293
 H          5.8708970310       -0.7447320097        0.5895310904
 O          3.6726364308        1.2236320703       -0.6453284094
 C          2.4410683307        1.8517697201       -0.4934966494
 O          2.3329206607        2.8507492203       -1.2299207592
 H         -2.2872325093        0.8701223692        0.9273227000
 C         -2.0891391492        1.2387841094       -0.0674706999
 C         -0.8601989693        1.8182003397       -0.3583230797
 C         -0.6475091892        2.3189593700       -1.6374687596
 C         -1.6371530391        2.2212718500       -2.5995137997
 C         -2.8517923491        1.6251674498       -2.3119229199
 C         -3.0818217791        1.1347080695       -1.0317297200
 N         -4.3112120191        0.5493579593       -0.7036805903
 S         -4.4249439690       -0.6417673310        0.4581191094
 O         -5.6733075289       -1.3090089411        0.1578431392
 O         -4.3243439192       -0.0611231313        1.7735445396
 C         -3.0587108789       -1.7490918007        0.1612088993
 C         -2.1289805589       -1.9735991708        1.1545670694
 C         -1.0731251188       -2.8350442606        0.9056560493
 C         -0.9645781686       -3.4516787004       -0.3304786908
 C         -1.9104081785       -3.2206010603       -1.3183753409
 C         -2.9692158587       -2.3624132005       -1.0731681108
 H         -3.7262095786       -2.1707198604       -1.8161309708
 H         -1.8225160384       -3.7054795401       -2.2773645810
 H         -0.1382329185       -4.1178132802       -0.5252475309
 H         -0.3365435988       -2.9990576607        1.6758946393
 H         -2.2347282691       -1.4703756511        2.1022325495
 H         -4.9401741190        0.3991782594       -1.4778326404
 H         -3.6198370690        1.5479743899       -3.0661478500
 H         -1.4567508991        2.6126945203       -3.5893214096
 H          0.2978526407        2.7792220601       -1.8734489494
 C          0.1684566406        1.9128744496        0.7465473404
 H         -0.1914434294        1.2541782993        1.5536396903
 C          0.1340614303        3.3163621494        1.3466120507
 C          1.3110952202        3.9212692994        2.0484259410
 C          0.8048063502        4.5251131096        0.7728984211
 H          0.2758557801        5.4656878496        0.8263247212
 H          1.4037335503        4.4033198499       -0.1134218089
 H          1.1481522500        4.4439300992        2.9793661311
 H          2.2455859003        3.3794465796        2.0075994010
 H         -0.8342649497        3.4991184292        1.8069526507
 O          1.0403618108       -0.4204520406        1.9489986200
