  62
        -98.94439120
 C          1.9475087210        0.8779472518        0.0768081398
 C          2.3942281078       -0.4596180555        0.2014225844
 C          3.8106384366       -0.6246351611        0.5546312983
 C          4.5798021183        0.4582323005        0.7682329003
 C          6.0347446846        0.4500018251        1.1519546555
 C          6.9924339660        0.3074356521       -0.0389980757
 C          7.0368712340       -1.0820112592       -0.6761524002
 H          7.8978248418       -1.0991379975       -1.3474032566
 H          7.2126433640       -1.8301307071        0.0974563406
 C          5.7805434652       -1.4526869063       -1.4766994850
 H          5.2085981077       -0.5485565544       -1.6979176811
 H          6.0740149119       -1.8873426754       -2.4349692227
 C          4.8624838694       -2.4607023454       -0.7850436882
 H          5.3813041339       -3.4159866752       -0.6777938154
 H          3.9887540962       -2.6224394181       -1.4217835892
 C          4.3648091948       -2.0165997081        0.5967697820
 H          3.5564002737       -2.6858222822        0.9018949522
 H          5.1709054979       -2.0852941028        1.3269511199
 H          6.7207506616        1.0466522977       -0.7960480158
 H          7.9954071783        0.5512549343        0.3187238109
 H          6.2329308568        1.4067494570        1.6398296567
 H          6.2207304142       -0.3506880112        1.8682398444
 O          4.1002626112        1.7271907295        0.6748591063
 C          2.7859629900        1.9683311651        0.3092602747
 O          2.4859381388        3.1773654750        0.2366324680
 H         -1.5208636403       -0.6918688961       -0.7113195815
 C         -1.4063616755       -0.3769468261        0.3115387109
 C         -0.4325092492        0.5413713782        0.6678977112
 C         -0.3089738075        0.8982614034        2.0091872904
 C         -1.1280309214        0.3368053439        2.9682164950
 C         -2.0952236742       -0.5864332053        2.6094681942
 C         -2.2296248441       -0.9475592769        1.2747975935
 N         -3.1854958624       -1.9013796065        0.8934123585
 S         -4.1234055271       -1.7024306011       -0.4732169128
 O         -5.1803211164       -2.6786758239       -0.3271300708
 O         -3.3179479674       -1.8068778019       -1.6622504631
 C         -4.7959630851       -0.0581740995       -0.3179591972
 C         -4.1823789302        0.9972346844       -0.9609989230
 C         -4.6862752090        2.2755552829       -0.7782135047
 C         -5.7869745569        2.4754429339        0.0402389831
 C         -6.3943379835        1.4035542551        0.6770735734
 C         -5.8934572053        0.1242279560        0.5011979846
 H         -6.3432552295       -0.7371828641        0.9676789113
 H         -7.2533317463        1.5616888751        1.3090589127
 H         -6.1750114549        3.4721819532        0.1792883717
 H         -4.2165722197        3.1094153539       -1.2752529316
 H         -3.3319446808        0.8034494659       -1.5931790742
 H         -3.7344086096       -2.2713403068        1.6552841945
 H         -2.7301923531       -1.0347672835        3.3584496259
 H         -1.0152517907        0.6190632836        4.0041433697
 H          0.4510629810        1.6160655159        2.2875270444
 C          0.5121342798        1.1675589733       -0.3282315467
 H          0.3971327383        2.2595889813       -0.2694249039
 C          0.2788062224        0.7308708647       -1.7588458766
 C         -0.7432056054        1.4301942034       -2.6016972712
 C          0.7170994035        1.6327631441       -2.8718218094
 H          1.1471431737        1.1882795186       -3.7568916693
 H          1.1622780652        2.5782614998       -2.5971703412
 H         -1.3197619619        0.8451520348       -3.3033336308
 H         -1.2848252414        2.2477839973       -2.1500335307
 H          0.4163722837       -0.3349554256       -1.9026369602
 O          1.6564231251       -1.4643405712        0.0287241964
