  62
        -98.94283799
 C         -0.7087452277       -1.3947005899        0.5750119970
 C         -1.1858233242       -0.7382804602       -0.5817578176
 C         -2.2256332067        0.2870679123       -0.3709942962
 C         -2.5607565717        0.6356342664        0.8848645441
 C         -3.5425903133        1.6647731685        1.4072760328
 C         -4.5646835794        2.3078209206        0.4733739392
 C         -5.6510830362        1.3571970879       -0.0322129613
 H         -6.3181534385        1.1226198309        0.8011984757
 H         -6.2386400855        1.8796449833       -0.7900191522
 C         -5.1595492875        0.0316059750       -0.6094320199
 H         -4.6262711952       -0.5285924910        0.1614344969
 H         -6.0383478504       -0.5582494885       -0.8839998763
 C         -4.2712394977        0.1440148973       -1.8465548396
 H         -4.0996697792       -0.8681088073       -2.2226649172
 H         -4.7942220411        0.7050860390       -2.6233869821
 C         -2.8984066168        0.7962936759       -1.6129356567
 H         -2.2433423971        0.5235574549       -2.4449880223
 H         -2.9826071155        1.8782427916       -1.5997161729
 H         -4.0634233899        2.7937873875       -0.3583284875
 H         -5.0593776500        3.0956599252        1.0480618920
 H         -4.0714925046        1.1798875427        2.2342934064
 H         -2.9340655468        2.4555953038        1.8605481354
 O         -1.9561445273        0.0730801375        1.9753365312
 C         -1.0750216689       -0.9860853735        1.8547796973
 O         -0.6914931500       -1.4657463988        2.9421086028
 H          1.7551317051       -0.5010035803        1.1001165059
 C          2.1758877344       -1.0391725565        0.2623307886
 C          1.5172112673       -2.1587030038       -0.2316250975
 C          2.0847927071       -2.8513078789       -1.2931696405
 C          3.2780712752       -2.4235362995       -1.8487521727
 C          3.9282157871       -1.3061062547       -1.3593477979
 C          3.3724838193       -0.6120603478       -0.2896648752
 N          4.0205897994        0.5093988540        0.2478336468
 S          3.1550864524        1.7579597903        0.9239688952
 O          4.0822834925        2.8714224035        0.9180611386
 O          2.6458859518        1.3840392374        2.2202320284
 C          1.8110218120        2.1323747762       -0.1871516599
 C          0.6064843613        2.5333188805        0.3521202599
 C         -0.4068461544        2.9457895575       -0.4973481944
 C         -0.2036663266        2.9365417182       -1.8678648474
 C          1.0046102149        2.5122542563       -2.3960376872
 C          2.0274152197        2.1161275590       -1.5504420401
 H          2.9804402426        1.7978299006       -1.9397879016
 H          1.1548871530        2.4938676583       -3.4632784571
 H         -0.9911783100        3.2606245784       -2.5293449860
 H         -1.3463291084        3.2747614379       -0.0836223232
 H          0.4850334061        2.5102031371        1.4244019678
 H          4.8328547175        0.8309195085       -0.2571418512
 H          4.8600504250       -0.9747220384       -1.7911641026
 H          3.7067844418       -2.9675855443       -2.6764043419
 H          1.5929566696       -3.7247168695       -1.6876227082
 C          0.2354895797       -2.5752931834        0.4458726722
 H          0.4859489676       -2.8738678814        1.4750430050
 C         -0.4702812118       -3.7276519871       -0.2391820160
 C         -0.0713095859       -5.1409579925        0.0574534234
 C         -1.3731587540       -4.6059354635        0.5717338224
 H         -2.2905839847       -4.9576089294        0.1240907728
 H         -1.4586711610       -4.3887272625        1.6270129677
 H         -0.0978813358       -5.8647546922       -0.7430282767
 H          0.7270415012       -5.2962842918        0.7674075493
 H         -0.7858850659       -3.4832103202       -1.2468055147
 O         -0.7820482391       -1.0044013664       -1.7426706916
