  62
        -98.94126757
 C         -1.3518028320       -1.4579210630       -0.1192786506
 C         -2.5018925786       -1.1008310295        0.6162770934
 C         -3.2095294183        0.1193439652        0.1889167196
 C         -2.7082726770        0.8412952777       -0.8298662388
 C         -3.2475751971        2.1089493361       -1.4437284333
 C         -3.7350769221        3.1933443062       -0.4708603574
 C         -5.2545564813        3.3726550750       -0.4699676851
 H         -5.4857746215        4.3824857292       -0.1239306659
 H         -5.6131402953        3.2898740848       -1.4980595508
 C         -6.0255968904        2.3937623961        0.4137298209
 H         -5.8544857340        2.6433786896        1.4631497254
 H         -7.0902251937        2.5368621594        0.2145077763
 C         -5.6817632922        0.9174331699        0.2075622122
 H         -6.5290322534        0.3248074561        0.5589318097
 H         -5.5571731756        0.6986454729       -0.8522835224
 C         -4.4385994365        0.4618395665        0.9863920727
 H         -4.1711014960        1.2115890061        1.7372689026
 H         -4.6685842096       -0.4513945750        1.5445681718
 H         -3.3723891206        2.9781693879        0.5335093270
 H         -3.2840142820        4.1393641579       -0.7755190633
 H         -2.4259636662        2.4990860466       -2.0487791432
 H         -4.0503932331        1.8449743015       -2.1372273301
 O         -1.5837559752        0.4664315063       -1.5025161858
 C         -0.8746857105       -0.6695693396       -1.1641618464
 O          0.1394633121       -0.8728999389       -1.8600832512
 O         -2.9267572285       -1.7772193088        1.5944611140
 C         -0.5752931074       -2.7021649114        0.2674548273
 C          0.8627018297       -2.3563211582        0.5663465038
 C          1.9293041714       -3.1721066975        0.2079860092
 C          3.2302772108       -2.7978434316        0.4972465169
 C          3.4974186822       -1.5963032620        1.1273796775
 C          2.4368796497       -0.7783069265        1.4977975787
 C          1.1347776510       -1.1737149160        1.2422287643
 H          0.3245573054       -0.5235553756        1.5393782956
 N          2.6491600509        0.4736514725        2.1165622785
 S          2.2128255164        1.8164436941        1.2085398037
 O          2.6166940170        2.9560031073        2.0053909515
 O          0.8175055974        1.7439800666        0.8616734294
 C          3.2552655262        1.7062080393       -0.2351109801
 C          2.8920791288        0.8776597667       -1.2776884683
 C          3.7652791992        0.7345887812       -2.3461820415
 C          4.9747062693        1.4114851455       -2.3534091987
 C          5.3229132878        2.2405702634       -1.2972769203
 C          4.4591935395        2.3856034763       -0.2244269362
 H          4.6844872147        3.0200911391        0.6177222057
 H          6.2627092800        2.7687980804       -1.3050974775
 H          5.6481228497        1.2923622983       -3.1875331025
 H          3.4861525920        0.0881557561       -3.1627445236
 H          1.9440507295        0.3616264642       -1.2579293183
 H          3.5953288123        0.6020878817        2.4507524893
 H          4.5127903659       -1.2901367169        1.3297841173
 H          4.0473723755       -3.4420930672        0.2111442575
 H          1.7410629636       -4.1015045491       -0.3042214393
 H         -1.0445638261       -3.0662917235        1.1940953830
 C         -0.7229671576       -3.7640904594       -0.8040827508
 C         -0.7307741055       -5.2182592491       -0.4404223600
 C         -1.9986100717       -4.5472783228       -0.8727855332
 H         -2.4067755165       -4.7846281001       -1.8437032621
 H         -2.7485036916       -4.3343384930       -0.1248972984
 H         -0.2699858939       -5.9215802090       -1.1175975691
 H         -0.6260446392       -5.4738547134        0.6031438827
 H         -0.2651507954       -3.4705378298       -1.7423105045
