  62
        -98.94044980
 C         -2.4735664212       -1.2239703335        0.0033205788
 C         -2.4333151316       -0.0046924629       -0.7143050705
 C         -3.7360995875        0.6248625874       -0.9763934977
 C         -4.8600259588        0.0169342984       -0.5542260960
 C         -6.2453346741        0.5745814530       -0.7039492557
 C         -6.6398573288        1.4145915502        0.5190160484
 C         -5.5862461025        2.4444236269        0.9267947437
 H         -5.9845800528        2.9969805152        1.7804447313
 H         -4.6905941321        1.9223226412        1.2713883257
 C         -5.1987535854        3.4300754437       -0.1843421512
 H         -5.9608695643        3.4278442973       -0.9643673154
 H         -5.1674179880        4.4374535539        0.2359636348
 C         -3.8294426758        3.1687342929       -0.8148978664
 H         -3.0735611225        3.0767635789       -0.0304144864
 H         -3.5632871659        4.0370112080       -1.4237424127
 C         -3.7354116121        1.9320855215       -1.7177306185
 H         -4.5353802005        1.9560610708       -2.4606382873
 H         -2.7764413206        1.9768526496       -2.2428610659
 H         -7.5811806985        1.9217161371        0.3001604235
 H         -6.8042961023        0.7408098667        1.3629533657
 H         -6.2909739742        1.1818863209       -1.6056821475
 H         -6.9426407054       -0.2590483716       -0.8015165328
 O         -4.8581146659       -1.1662135489        0.1116243592
 C         -3.6699624558       -1.8086159812        0.4179435607
 O         -3.8080076185       -2.8726559618        1.0544530360
 H          1.4917079035       -1.3795077865       -0.1058450208
 C          1.0763710411       -0.8543082475        0.7367121137
 C         -0.2526586165       -1.0251728919        1.0899241449
 C         -0.7457322511       -0.3319752015        2.1928591233
 C          0.0647087189        0.5298189114        2.9048188166
 C          1.3832883805        0.7204382443        2.5304441754
 C          1.8912915721        0.0208522348        1.4427774836
 N          3.2456727719        0.1611733161        1.0830552717
 S          3.6892266931        0.2871145404       -0.5419380091
 O          3.0760863531        1.4508248620       -1.1440750569
 O          3.4645188784       -0.9746455202       -1.1983155033
 C          5.4421992260        0.5537308418       -0.3453904469
 C          6.2469494335       -0.5371781935       -0.0767901143
 C          7.6059616548       -0.3384947809        0.1065116723
 C          8.1352595669        0.9407198297        0.0193471455
 C          7.3158306028        2.0255249820       -0.2534760579
 C          5.9552175176        1.8335084892       -0.4365091971
 H          5.2814442099        2.6453916458       -0.6591689846
 H          7.7305183363        3.0181748751       -0.3245113920
 H          9.1935519694        1.0925867180        0.1617239384
 H          8.2466775909       -1.1798586083        0.3158949064
 H          5.7924287328       -1.5127410020       -0.0267944111
 H          3.6943983666        0.9040313003        1.6040692308
 H          2.0139653466        1.4038734865        3.0791245533
 H         -0.3342039109        1.0659034501        3.7531433525
 H         -1.7802607299       -0.4734790314        2.4771461721
 C         -1.1811011064       -1.9466316890        0.3368362575
 H         -1.4583963119       -2.7758080821        1.0048789807
 C         -0.5687323071       -2.5233438060       -0.9224351067
 C          0.2756799060       -3.7589364755       -0.8536138492
 C         -1.0936650964       -3.8196388708       -1.4591363711
 H         -1.1827044209       -3.9364411781       -2.5287961539
 H         -1.8813037247       -4.3025468534       -0.8988326802
 H          0.4202511382       -4.2103316750        0.1163599118
 H          1.1335841416       -3.8294031823       -1.5055104927
 H         -0.2942719233       -1.7586550921       -1.6415895742
 O         -1.3666663954        0.5335614206       -1.1140899133
