  62
        -98.93304213
 C          2.0864668607        1.0908009578        0.1740984870
 C          2.5182804673        0.0555280132        1.0356195165
 C          2.7295946837       -1.2743839516        0.4369488682
 C          2.4420620743       -1.4531699464       -0.8645233193
 C          2.5619294815       -2.7059743462       -1.6954618065
 C          2.0409106034       -4.0027062317       -1.0567008149
 C          3.1519707876       -4.9849805885       -0.6807064067
 H          2.7304659834       -5.9919941074       -0.6487356757
 H          3.9069710532       -4.9715471645       -1.4694010792
 C          3.8236653406       -4.7226220589        0.6659416594
 H          4.6784313489       -5.3982264876        0.7459152069
 H          3.1305193354       -4.9771564624        1.4706455449
 C          4.3101484955       -3.2889189025        0.8862735574
 H          5.0952770710       -3.3155881657        1.6447886281
 H          4.7592180466       -2.8929224134       -0.0237436446
 C          3.2134140302       -2.3367552842        1.3863165309
 H          2.3488110462       -2.9090841374        1.7369469664
 H          3.5759878004       -1.7825981170        2.2580541423
 H          1.4281737727       -3.7645900528       -0.1877332308
 H          1.3889845711       -4.4915694401       -1.7826350793
 H          3.6070768797       -2.8304613522       -1.9901713218
 H          2.0014845925       -2.4912210806       -2.6081980709
 O          1.9964000783       -0.4350501316       -1.6533376412
 C          1.7845710516        0.8432527997       -1.1656717892
 O          1.3497099231        1.6418395200       -2.0165637647
 O          2.7227874107        0.2337846063        2.2685242458
 C          1.8052057730        2.4519182409        0.7865886824
 C          0.4232843788        2.8973184761        0.3778454899
 C          0.1386257745        4.1195436155       -0.2147409223
 C         -1.1570633424        4.4242265122       -0.5962606498
 C         -2.1842741522        3.5184304228       -0.4116178599
 C         -1.9101494015        2.2949243552        0.1910117621
 C         -0.6204896146        2.0066511476        0.5996309063
 H         -0.4158834784        1.0509582860        1.0625852477
 N         -2.9314511995        1.3517800437        0.4114523082
 S         -2.5378244516       -0.2863163410        0.2839340388
 O         -1.9547064610       -0.7210871477        1.5303052662
 O         -1.7614714697       -0.5365623494       -0.9095032419
 C         -4.1723407109       -0.9821179533        0.1212105276
 C         -4.6373169943       -1.3465637399       -1.1279231765
 C         -5.9230311317       -1.8521065368       -1.2435270577
 C         -6.7186184673       -1.9794444399       -0.1149252603
 C         -6.2377728873       -1.6096592118        1.1326213133
 C         -4.9528203560       -1.1055456198        1.2554487244
 H         -4.5317031801       -0.8132529322        2.2031364938
 H         -6.8581857569       -1.7123218690        2.0081831156
 H         -7.7188228316       -2.3719354342       -0.2079706686
 H         -6.2976297057       -2.1431133031       -2.2116242353
 H         -3.9794732805       -1.2341712424       -1.9750586260
 H         -3.7711210987        1.5633298721       -0.1113702478
 H         -3.1882073483        3.7491325780       -0.7342973260
 H         -1.3650930819        5.3745752337       -1.0641831060
 H          0.9330610994        4.8221158758       -0.4053663775
 H          1.7880431707        2.2592876080        1.8733662683
 C          2.8845353536        3.4967181414        0.5505413139
 C          4.2990031607        3.0928879870        0.2630447448
 C          3.4760753875        3.7488572656       -0.8027363271
 H          3.7125232633        4.7670581347       -1.0753525056
 H          3.1164633611        3.1471205371       -1.6221641668
 H          5.0968700065        3.6575668498        0.7215900301
 H          4.5067901530        2.0365725294        0.1703788500
 H          2.7568984255        4.3617001786        1.1943241413
