  62
        -98.94430265
 C         -1.8167596244       -0.9962592868        0.2015635165
 C         -2.0261523374        0.3601910831       -0.1470878555
 C         -3.3046645394        0.9421512419        0.2840520844
 C         -4.1735542021        0.2104768783        1.0033513747
 C         -5.5007843449        0.6759672759        1.5370090714
 C         -6.6471244952        0.5879791082        0.5200665863
 C         -6.6058399507        1.6292485263       -0.5992129472
 H         -7.5725631754        1.5932447805       -1.1054698005
 H         -6.5035869639        2.6242225796       -0.1646171424
 C         -5.4972824329        1.4011633592       -1.6362405333
 H         -5.9097148943        1.5173734155       -2.6410091045
 H         -5.1306429546        0.3751341089       -1.5576546010
 C         -4.3126655966        2.3601928087       -1.5194416341
 H         -3.5740742509        2.0857879861       -2.2767169710
 H         -4.6448546788        3.3798973455       -1.7268667587
 C         -3.6183300356        2.3421572789       -0.1514570962
 H         -2.6735880031        2.8844507231       -0.2387913351
 H         -4.2390541755        2.8415823114        0.5921434846
 H         -6.6522226669       -0.4143919122        0.0855894075
 H         -7.5816005510        0.7154446837        1.0713491770
 H         -5.4124157692        1.7003147301        1.9002858689
 H         -5.7398553360        0.0270727756        2.3824011352
 O         -3.9217328170       -1.0780908256        1.3531086318
 C         -2.7624310104       -1.7128074165        0.9444976157
 O         -2.6847848186       -2.9056206070        1.3007024243
 O         -1.2045406262        1.0770430510       -0.7802372421
 C         -0.5804074169       -1.7877775424       -0.1978288824
 C          0.5989388164       -1.4862887031        0.6948905061
 C          1.2241901475       -2.4924586877        1.4213161543
 C          2.3298011472       -2.2142008027        2.2070261105
 C          2.8328213224       -0.9276822322        2.2861906263
 C          2.2086118707        0.0844091233        1.5696855658
 C          1.1071815871       -0.1977071149        0.7765016790
 H          0.6298002078        0.5947457277        0.2191312541
 N          2.7218785535        1.4010922672        1.6306305353
 S          4.2289070982        1.5885857271        0.9195438019
 O          5.2146872093        0.9280935755        1.7368234272
 O          4.4043436299        3.0105618099        0.7299147507
 C          4.0787243907        0.7599136528       -0.6522559559
 C          4.4229311392       -0.5731308183       -0.7509941871
 C          4.2215806105       -1.2274404779       -1.9554102106
 C          3.6804712187       -0.5418355384       -3.0319024220
 C          3.3358260130        0.7958571810       -2.9152964408
 C          3.5305132335        1.4540170430       -1.7120484976
 H          3.2782841509        2.4944572994       -1.5815978663
 H          2.9110528021        1.3254563876       -3.7530728817
 H          3.5289759014       -1.0515744752       -3.9707691579
 H          4.4830087375       -2.2690852632       -2.0485673475
 H          4.8446550295       -1.0682283507        0.1081529483
 H          2.0855473419        2.0768660770        1.2294903626
 H          3.7009626584       -0.6928784498        2.8807344280
 H          2.8044826122       -3.0070887789        2.7647784320
 H          0.8319722083       -3.4979108878        1.3746954405
 H         -0.8492366895       -2.8423757124       -0.0525282067
 C         -0.1934205533       -1.5879000396       -1.6517005505
 C          0.6032045684       -2.6515183443       -2.3418476246
 C         -0.8354346011       -2.4382235810       -2.7040594272
 H         -1.0698704691       -1.9883879885       -3.6570631202
 H         -1.5588675923       -3.1727054672       -2.3799782863
 H          1.3613352219       -2.3473086063       -3.0457617561
 H          0.8558921184       -3.5340416059       -1.7742543169
 H          0.0162279485       -0.5567322965       -1.9031941521
