  62
        -98.93670127
 C          2.4097680045        0.9004552844        0.4522864640
 C          2.5051334715       -0.1758333231       -0.4598300406
 C          3.5848338363       -1.1499853135       -0.2094495925
 C          4.3836362698       -0.9860129112        0.8587584087
 C          5.5635167937       -1.8277399635        1.2587777188
 C          6.8672444527       -1.2363979215        0.6961449240
 C          7.2253594941       -1.6949750829       -0.7170048071
 H          8.0858139646       -1.1053700002       -1.0417063692
 H          7.5382822026       -2.7407474632       -0.6860950299
 C          6.1098268984       -1.5496241313       -1.7554619485
 H          5.6106676842       -0.5873480143       -1.6276458974
 H          6.5723504190       -1.5442213999       -2.7444653032
 C          5.0782658242       -2.6862019349       -1.6964500074
 H          4.9441314841       -3.1039551054       -2.6964474589
 H          5.4717683244       -3.4912214293       -1.0760553696
 C          3.6832525519       -2.2827326445       -1.1947239139
 H          3.1896453683       -3.1613590824       -0.7663642753
 H          3.0695374824       -1.9644197077       -2.0433144372
 H          6.7777144736       -0.1472400704        0.7186181734
 H          7.6908773878       -1.5096645276        1.3588117003
 H          5.6108437742       -1.7988107687        2.3493114746
 H          5.4285982014       -2.8571579545        0.9406847298
 O          4.2407803905        0.0528366821        1.7271321426
 C          3.2643352334        1.0124432344        1.5516147758
 O          3.2556443199        1.9037762698        2.4239812011
 O          1.7414717155       -0.3244730761       -1.4505160675
 C          1.3451225171        1.9763721781        0.3052151128
 C         -0.0036443273        1.3716110925        0.6117033241
 C         -0.4058851977        1.2511687011        1.9390037896
 C         -1.6232770199        0.6802409164        2.2587557736
 C         -2.4619123719        0.2094708772        1.2630720527
 C         -2.0668696827        0.3180553036       -0.0628930402
 C         -0.8490079762        0.9047275889       -0.3824083757
 H         -0.5485573722        0.9714396783       -1.4161737358
 N         -2.9051143106       -0.1794303734       -1.0767834279
 S         -4.4915022385        0.3658070212       -1.1235294192
 O         -4.9096517908        0.2085429219       -2.4995873745
 O         -4.6093909609        1.6928326348       -0.5640970198
 C         -5.3801306071       -0.8002390990       -0.1127214898
 C         -6.1087027110       -0.3541797127        0.9725001794
 C         -6.8016101641       -1.2775290471        1.7399909598
 C         -6.7547226730       -2.6232194751        1.4096283079
 C         -6.0204570328       -3.0547139353        0.3147863301
 C         -5.3265317342       -2.1366754295       -0.4571063511
 H         -4.7484539034       -2.4302839604       -1.3174618579
 H         -5.9865714536       -4.1020066877        0.0609809134
 H         -7.2938299825       -3.3401599376        2.0085775889
 H         -7.3734636777       -0.9440146771        2.5910309461
 H         -6.1120017302        0.7012276466        1.1938424619
 H         -2.4860797764       -0.1471979909       -1.9950874186
 H         -3.4108901089       -0.2407738265        1.5049228944
 H         -1.9226654410        0.5982559331        3.2925975174
 H          0.2552254183        1.6078174356        2.7169545294
 H          1.5633095660        2.7186653731        1.0847343507
 C          1.4126515685        2.6600855674       -1.0447846288
 C          0.6721422143        3.9464616421       -1.2494643938
 C          2.1690383001        3.9459003493       -1.1778821528
 H          2.7288291246        4.1227075228       -2.0841185868
 H          2.6384169293        4.3446111795       -0.2903158034
 H          0.2013530745        4.1265500926       -2.2040954801
 H          0.1227306441        4.3435511219       -0.4090438540
 H          1.4667542440        1.9692340839       -1.8766991451
