  62
        -98.94479840
 C          1.9970212867        1.3595934579        0.3039629218
 C          2.6525925170        0.7740798144       -0.8063358301
 C          3.8238538655       -0.0529114292       -0.4882261270
 C          4.2113571556       -0.2043894484        0.7912145020
 C          5.4009493287       -0.9921634711        1.2692865154
 C          5.1306410772       -2.4937706860        1.4362093508
 C          4.9884845308       -3.2782577886        0.1312084830
 H          5.8469258387       -3.0743374339       -0.5094368199
 H          5.0194725091       -4.3386553413        0.3895214061
 C          3.6906771518       -2.9961886930       -0.6391446394
 H          2.9685472599       -2.5155161364        0.0253343791
 H          3.2451673214       -3.9399313108       -0.9621334224
 C          3.8681451489       -2.1291131678       -1.8857832031
 H          2.8825384408       -1.9600017464       -2.3276623902
 H          4.4787612856       -2.6620766869       -2.6179879674
 C          4.5088168416       -0.7609215487       -1.6176377563
 H          5.5718927986       -0.8772809431       -1.4080084021
 H          4.3920260349       -0.1472885570       -2.5141581589
 H          5.9669196735       -2.9149641071        1.9988967332
 H          4.2278569602       -2.6221589744        2.0381393352
 H          6.2361919480       -0.8458736257        0.5839831056
 H          5.6743075602       -0.5817664452        2.2438061481
 O          3.5513487027        0.3746592736        1.8299771053
 C          2.4189378540        1.1449479850        1.6152514806
 O          1.8830239745        1.5733548306        2.6585437600
 O          2.2850659067        0.9332981073       -1.9984441189
 C          0.7674736624        2.2236065423        0.0870957260
 C         -0.3107638455        1.4157926679       -0.5944722435
 C         -1.0120140630        1.8540692638       -1.7092621622
 C         -1.9827380675        1.0525686954       -2.2866422732
 C         -2.2834892991       -0.1899771235       -1.7615964913
 C         -1.6039117584       -0.6280173392       -0.6310867737
 C         -0.6328558568        0.1756729446       -0.0551726148
 H         -0.1015827262       -0.1681806677        0.8244194443
 N         -1.9207066482       -1.8783829241       -0.0733659896
 S         -3.5404724153       -2.2668012385        0.0950879731
 O         -3.5977203229       -3.1723653154        1.2213096720
 O         -4.0468684814       -2.7836384247       -1.1518861658
 C         -4.3561289409       -0.7278311057        0.4834966460
 C         -3.9600360541       -0.0490910089        1.6189897207
 C         -4.5589252874        1.1636850173        1.9180206548
 C         -5.5393633307        1.6744229419        1.0809011576
 C         -5.9305632599        0.9779077058       -0.0517368027
 C         -5.3330030055       -0.2345169487       -0.3571072453
 H         -5.6037783086       -0.8072386977       -1.2290818460
 H         -6.6948326827        1.3763322682       -0.6992221710
 H         -6.0004945383        2.6208274982        1.3151978451
 H         -4.2549564348        1.7060914053        2.7990338925
 H         -3.1975248966       -0.4735663886        2.2528389397
 H         -1.4011060211       -2.0996781547        0.7628143986
 H         -3.0232085280       -0.8325212112       -2.2108680376
 H         -2.5099082418        1.3997184187       -3.1619034476
 H         -0.7912068967        2.8184614870       -2.1353404295
 H          0.4057761319        2.4937791403        1.0900039066
 C          1.1408083842        3.4904668461       -0.6533071220
 C          0.3433675353        4.7430314991       -0.4529195827
 C          1.7229754758        4.6330170843        0.1214149780
 H          2.5188906768        5.2081574180       -0.3273826411
 H          1.8272132788        4.5056224387        1.1894178793
 H          0.1930913489        5.3995060480       -1.2965508605
 H         -0.4927648183        4.6998847298        0.2283018365
 H          1.5514551515        3.2926993584       -1.6365072487
