  62
        -98.93488162
 C         -2.2769888759       -0.8940240829       -0.1350084384
 C         -3.5767159759       -1.2572083108        0.2863439437
 C         -4.6891305625       -0.4554507608       -0.2519819937
 C         -4.4153862361        0.5513390547       -1.0999514608
 C         -5.3885822362        1.5175352064       -1.7172849097
 C         -5.5020969433        2.7936837429       -0.8659363865
 C         -6.5369403468        2.7296007828        0.2568539950
 H         -6.4222403377        3.6359074146        0.8559082074
 H         -7.5385866332        2.7485843385       -0.1776165249
 C         -6.4270453540        1.5130156799        1.1795925291
 H         -5.3784992382        1.3284317067        1.4203047589
 H         -6.9354611195        1.7552515827        2.1148470201
 C         -7.0581286188        0.2452341341        0.5849350840
 H         -7.6567968770        0.5192553232       -0.2834450846
 H         -7.7473860732       -0.1900793417        1.3113653205
 C         -6.0658574856       -0.8618163404        0.1991887870
 H         -5.8920130924       -1.5118118663        1.0624816164
 H         -6.5152351895       -1.4894301723       -0.5774984209
 H         -4.5146303514        3.0044627166       -0.4468686294
 H         -5.7634718185        3.6284140576       -1.5195086119
 H         -4.9810096050        1.7863429870       -2.6940458704
 H         -6.3587411480        1.0505947826       -1.8583435467
 O         -3.1460907675        0.8669019257       -1.4818942825
 C         -2.0489946423        0.1651683945       -1.0123874826
 O         -0.9533641182        0.5740606817       -1.4438380269
 H          1.6158313049       -1.2491902682       -0.0431407505
 C          1.2065414308       -0.6540698456        0.7544374583
 C         -0.1327430574       -0.7545982925        1.0950799013
 C         -0.6194615918        0.0322469712        2.1366129888
 C          0.2092592518        0.9126781705        2.8028899755
 C          1.5394644483        1.0315558004        2.4397487385
 C          2.0394106308        0.2424325070        1.4113010425
 N          3.4032396949        0.3148922102        1.0657475769
 S          3.8773948702        0.3488449309       -0.5548979848
 O          3.3615502470        1.5333485631       -1.2063900607
 O          3.5733702912       -0.9159241889       -1.1719623394
 C          5.6420412467        0.4956996047       -0.3356059406
 C          6.2543785747        1.7236637447       -0.4971568733
 C          7.6227608791        1.8223699406       -0.2983217966
 C          8.3508440813        0.6980012676        0.0597008245
 C          7.7222211167       -0.5283585233        0.2178749793
 C          6.3549954135       -0.6338030523        0.0190465784
 H          5.8248199957       -1.5660533066        0.1221501744
 H          8.2920792913       -1.4008178267        0.4941533073
 H          9.4153362320        0.7774236852        0.2140113040
 H          8.1144031561        2.7736471167       -0.4236804220
 H          5.6489596729        2.5684496225       -0.7843077229
 H          3.8698131272        1.0696947418        1.5532743269
 H          2.1854756205        1.7294275990        2.9511979746
 H         -0.1831930968        1.5195849960        3.6051306416
 H         -1.6628164785       -0.0527974840        2.4095935012
 C         -1.0881180018       -1.6814267850        0.3856300092
 H         -1.5028517867       -2.3822234770        1.1255895405
 C         -0.4495164688       -2.4779389237       -0.7317137896
 C          0.3078659042       -3.7331032032       -0.4209689266
 C         -1.0263513719       -3.8110888754       -1.0984676633
 H         -1.0622845111       -4.0870518659       -2.1416963326
 H         -1.8731943669       -4.1580818759       -0.5244876427
 H          1.1939480393       -3.9517196347       -0.9977130168
 H          0.3690878960       -4.0339293699        0.6139611098
 H         -0.0865960844       -1.8506999936       -1.5396059470
 O         -3.7988457470       -2.2048819574        1.0877914487
