  62
        -98.93561530
 C         -1.9343265392       -0.9979175908        0.2205523797
 C         -2.3711578969       -0.0071415958        1.1312285462
 C         -2.5987969230        1.3448866259        0.5939051511
 C         -2.3450910228        1.5862239329       -0.7054957520
 C         -2.4212173297        2.8629478249       -1.5174740385
 C         -3.1334380666        4.0969801839       -0.9697356277
 C         -4.6487394585        3.9513246919       -0.8307072019
 H         -5.0334784433        4.8443565840       -0.3338096295
 H         -5.0857688742        3.9115268090       -1.8314852353
 C         -5.1253060989        2.7156534733       -0.0716423803
 H         -6.2184275502        2.7305370166       -0.0608395708
 H         -4.8204082045        1.8155994236       -0.6094901752
 C         -4.6485257344        2.6132481054        1.3757732930
 H         -5.1815120536        1.7793125383        1.8403863702
 H         -4.9148951901        3.5232687955        1.9166094537
 C         -3.1426197486        2.3575405411        1.5605773796
 H         -2.9892283109        1.9379425732        2.5593829407
 H         -2.5722694214        3.2822012345        1.5076125394
 H         -2.9433586579        4.9058361728       -1.6804732318
 H         -2.6887483936        4.3976233828       -0.0255425539
 H         -1.3803537694        3.1278709458       -1.7362411970
 H         -2.8742894309        2.5818175593       -2.4737243374
 O         -1.8902517097        0.6077834344       -1.5406132805
 C         -1.6552477790       -0.6879571147       -1.1105803730
 O         -1.2251462944       -1.4428450037       -2.0028672649
 O         -2.5554885394       -0.2397228734        2.3577560080
 C         -1.6306509801       -2.3815108379        0.7682640522
 C         -0.2552158034       -2.7989740116        0.3110299783
 C          0.0234130542       -3.9926122437       -0.3398894568
 C          1.3111077014       -4.2699899214       -0.7665333127
 C          2.3357931892       -3.3639610670       -0.5698377471
 C          2.0682590120       -2.1700994041        0.0922904688
 C          0.7877401459       -1.9107877749        0.5464892531
 H          0.5882497932       -0.9777040710        1.0555366547
 N          3.0884058174       -1.2292179686        0.3262720114
 S          2.6802199026        0.4094522142        0.3052171615
 O          2.1406135539        0.7678020526        1.5944678769
 O          1.8590903434        0.7211441864       -0.8432589707
 C          4.3025533189        1.1282855937        0.1222489372
 C          4.7285714133        1.5382929633       -1.1267674050
 C          6.0048177169        2.0626547646       -1.2612615658
 C          6.8298518132        2.1636760633       -0.1512367977
 C          6.3879935642        1.7484756559        1.0963847437
 C          5.1127436531        1.2249436623        1.2380152169
 H          4.7210137017        0.8976844203        2.1868706500
 H          7.0311347581        1.8309283976        1.9575373979
 H          7.8225386549        2.5712204025       -0.2589739336
 H          6.3490619474        2.3890817686       -2.2293384789
 H          4.0485344213        1.4458756068       -1.9586984051
 H          3.9130783374       -1.4060918553       -0.2318846623
 H          3.3325442746       -3.5715051295       -0.9284507612
 H          1.5140283776       -5.1977272975       -1.2798699479
 H         -0.7703280122       -4.6930840289       -0.5408293081
 H         -1.5921438097       -2.2357405890        1.8618489613
 C         -2.7078315025       -3.4231486942        0.5084840284
 C         -4.1288461842       -3.0177313240        0.2579874991
 C         -3.3176427818       -3.6244137083       -0.8452673380
 H         -3.5518917502       -4.6321556995       -1.1560159388
 H         -2.9733691741       -2.9873574982       -1.6444536059
 H         -4.9164830366       -3.6057002610        0.7048418482
 H         -4.3448340190       -1.9600425679        0.2109370228
 H         -2.5651350290       -4.3124743393        1.1148454800
