  62
        -98.93725226
 C         -1.4714534150       -1.5608951432       -0.2917253702
 C         -1.4098060891       -0.2261987836        0.1840573495
 C         -2.6606060841        0.3137225603        0.7452737675
 C         -3.7641411938       -0.4521650982        0.7777196912
 C         -5.1143071931        0.0029842179        1.2487320416
 C         -5.9396073451        0.5795149372        0.0894526486
 C         -5.1861038937        1.6064017086       -0.7562938597
 H         -4.3622093546        1.1074883466       -1.2716090586
 H         -5.8762996506        1.9626849703       -1.5242661207
 C         -4.6386454525        2.8025365356        0.0349047731
 H         -4.8623256888        3.7180819266       -0.5168092759
 H         -5.1471678592        2.8726412911        0.9971885212
 C         -3.1258731867        2.7751118654        0.2614885183
 H         -2.8235382448        3.7552260438        0.6389596232
 H         -2.6142899323        2.6151219838       -0.6905439907
 C         -2.6212444699        1.7256748927        1.2591361134
 H         -1.5673295977        1.9393132606        1.4592682094
 H         -3.1772527613        1.8091953073        2.1949773458
 H         -6.2430362043       -0.2435757131       -0.5618985370
 H         -6.8417717371        1.0356681723        0.5013979080
 H         -5.6417738820       -0.8560127723        1.6668723807
 H         -4.9882343690        0.7533504394        2.0267932454
 O         -3.7831623534       -1.7327429765        0.3263848513
 C         -2.6492578382       -2.3117689532       -0.2136424938
 O         -2.8142336022       -3.4919546690       -0.5878246785
 H          1.6992179444       -0.3885107448       -0.3634611509
 C          1.7911841115       -1.2920020535        0.2087463280
 C          0.8841881763       -2.3277329919        0.0444894259
 C          1.0239481665       -3.4569991427        0.8504014767
 C          2.0373230313       -3.5461978842        1.7854817437
 C          2.9431309629       -2.5116600707        1.9379953037
 C          2.8111567139       -1.3769698337        1.1474069390
 N          3.6795569300       -0.2917708279        1.3071792171
 S          4.0449848816        0.7328023352        0.0423180811
 O          4.1752596470        0.0091382088       -1.2018480486
 O          5.2364866424        1.4272503775        0.4885336405
 C          2.7006988422        1.8944406781       -0.0364843533
 C          2.2334791542        2.2991242274       -1.2699015912
 C          1.2030609054        3.2234501292       -1.3248677499
 C          0.6639583402        3.7255852321       -0.1521758160
 C          1.1504588601        3.3137726055        1.0781435847
 C          2.1802302892        2.3906294693        1.1407078986
 H          2.5735132097        2.0395061069        2.0804839066
 H          0.7227900567        3.7021619883        1.9890390409
 H         -0.1474226657        4.4351161699       -0.1980538546
 H          0.8173779708        3.5378155700       -2.2819160517
 H          2.6693142544        1.8699870283       -2.1589293680
 H          4.4524976653       -0.4305663222        1.9397171108
 H          3.7373033345       -2.5765330201        2.6662335860
 H          2.1264369552       -4.4305452701        2.3983376610
 H          0.3171092579       -4.2681629195        0.7419305586
 C         -0.2805395198       -2.2882083468       -0.9127944030
 H         -0.6285198019       -3.3278424674       -1.0088352307
 C         -0.0265753501       -1.8258959265       -2.3456462077
 C          0.3443363281       -0.4318967761       -2.7520709345
 C          1.3240718605       -1.5506970574       -2.9360853298
 H          1.5134793300       -1.9003463421       -3.9408451429
 H          2.1934658729       -1.5781685177       -2.2971492767
 H         -0.1372649945       -0.0210249327       -3.6288056696
 H          0.5162464865        0.2956827081       -1.9759854203
 H         -0.7329709454       -2.3146840131       -3.0131652857
 O         -0.3878121057        0.5019533103        0.1541299699
