  62
        -98.94952685
 C         -1.6394466582        0.8107379162        0.6980043373
 C         -1.4965824789        1.5866752548       -0.4772858236
 C         -0.5101421831        2.6752588306       -0.4103446502
 C          0.2069616412        2.8482385861        0.7142283578
 C          1.2383130117        3.9197438765        0.9225511641
 C          2.6488662232        3.4553443111        0.5375926123
 C          2.7387047496        2.8049466805       -0.8430597267
 H          2.2058584307        1.8512106644       -0.8431309912
 H          3.7914226225        2.5752776890       -1.0266047878
 C          2.1961933825        3.6647792585       -1.9924366114
 H          2.8924635812        3.6009933328       -2.8314083691
 H          2.1468988765        4.7116678932       -1.6886011693
 C          0.8292621688        3.2156992798       -2.5136134423
 H          0.8431817201        2.1338548567       -2.6740697319
 H          0.6593018481        3.6919069169       -3.4834160950
 C         -0.3701056315        3.5559354744       -1.6192314062
 H         -1.2788084469        3.3990908188       -2.2081262202
 H         -0.3261761015        4.6085213551       -1.3288549096
 H          2.9956128518        2.7327440920        1.2802978487
 H          3.3140388061        4.3206629103        0.5735080813
 H          1.2342871865        4.1925052030        1.9797163996
 H          0.9625419090        4.7923903114        0.3331449051
 O          0.0786821539        2.0483962342        1.8047848511
 C         -0.8389985165        1.0088300578        1.8214752697
 O         -0.8466896313        0.3467009632        2.8788924720
 O         -2.1756387830        1.3989398717       -1.5208179819
 C         -2.6384097544       -0.3331664282        0.7377261282
 C         -2.2814761606       -1.3394091662       -0.3291028159
 C         -3.1989673351       -1.9014813115       -1.2063923821
 C         -2.7766113094       -2.7892926063       -2.1814643015
 C         -1.4402281691       -3.1192057855       -2.3130586799
 C         -0.5165588720       -2.5720490496       -1.4293295087
 C         -0.9483768812       -1.7154726875       -0.4317539157
 H         -0.2303948329       -1.2971071207        0.2585198696
 N          0.8497542212       -2.8788708746       -1.5140378657
 S          1.9743337687       -1.6897580119       -1.1566683370
 O          1.5039069037       -0.3735308133       -1.5157714343
 O          3.1832044655       -2.1332112597       -1.8210496610
 C          2.2106545438       -1.8236136427        0.6018235967
 C          2.2160128634       -0.6838176924        1.3794065838
 C          2.4145230070       -0.8003515051        2.7454243052
 C          2.6087450633       -2.0524522217        3.3067738046
 C          2.6099062076       -3.1887847421        2.5115194763
 C          2.4099007916       -3.0773525205        1.1452748869
 H          2.4013687352       -3.9363117695        0.4953071159
 H          2.7611770688       -4.1602793092        2.9539556226
 H          2.7571007792       -2.1403388194        4.3714643705
 H          2.3974992745        0.0843429176        3.3617003693
 H          2.0449165444        0.2716920238        0.9084737170
 H          1.1185495798       -3.4263033213       -2.3186515102
 H         -1.1103289580       -3.7883074496       -3.0931674298
 H         -3.4973741827       -3.2156611396       -2.8627489426
 H         -4.2409808657       -1.6356169994       -1.1370071717
 H         -2.5104543126       -0.8144624462        1.7186454712
 C         -4.0543298743        0.1920500043        0.6303851119
 C         -5.1874928292       -0.5591123414        1.2605575047
 C         -4.7195744496        0.7322500507        1.8593724015
 H         -5.3475781945        1.6052695787        1.7643832376
 H         -4.1580873491        0.6970192177        2.7817642489
 H         -6.1419057147       -0.5714773148        0.7561586089
 H         -4.9516293342       -1.4735119171        1.7834774814
 H         -4.2363387226        0.7084103897       -0.3050733470
