  62
        -98.93795234
 C          2.3534901799        0.0665703694        0.4715918700
 C          3.3415107799        0.6760379988       -0.3402634904
 C          4.4292433896       -0.2052052117       -0.7888469802
 C          4.4142251093       -1.5124524115       -0.4753580398
 C          5.4395841989       -2.5357898620       -0.8815818996
 C          6.6711296991       -2.5811716620        0.0335715302
 C          7.6304822594       -1.3984218923       -0.1059341703
 H          8.5463558394       -1.6648937424        0.4254384896
 H          7.8910443992       -1.2652818127       -1.1563770704
 C          7.0956329398       -0.0777167520        0.4652087093
 H          6.2566408499       -0.2829949715        1.1340401295
 H          7.8730006400        0.4008026680        1.0651622990
 C          6.6502187299        0.9349896678       -0.5897970610
 H          7.5120532299        1.2504209673       -1.1821160612
 H          6.2551954403        1.8145614981       -0.0751682312
 C          5.5654057996        0.4172679378       -1.5432728306
 H          5.1667918998        1.2663543477       -2.1037665409
 H          5.9921533493       -0.2967562426       -2.2471809705
 H          6.3333762292       -2.6557608815        1.0698306503
 H          7.2194445788       -3.4957712922       -0.2038021495
 H          4.9425138187       -3.5073083818       -0.8385547592
 H          5.7545355888       -2.3521353424       -1.9091752797
 O          3.4165264792       -2.0729613210        0.2587984306
 C          2.3859798795       -1.3006917205        0.7636918705
 O          1.5637262295       -1.9380878701        1.4534694308
 O          3.3425740902        1.8869069687       -0.6842081908
 C          1.1823138902        0.8293636199        1.0718999099
 C          0.0799014001        0.9991679898        0.0531766700
 C          0.2160263401        1.8535973594       -1.0355028603
 C         -0.8126242100        1.9887861694       -1.9501649502
 C         -1.9915954702        1.2797939398       -1.8020787798
 C         -2.1361499102        0.4208473902       -0.7209668294
 C         -1.1043496401        0.2911232402        0.2004373304
 H         -1.2132670602       -0.3875497694        1.0362727707
 N         -3.3231381104       -0.3205398294       -0.5749303990
 S         -4.7766743702        0.5047871009       -0.8275795991
 O         -5.0444418404        0.5322875005       -2.2437829290
 O         -4.7358737198        1.7907420811       -0.1683160795
 C         -5.9378838704       -0.5740796485       -0.0138392085
 C         -6.3195120201       -0.2963730379        1.2850851915
 C         -7.2091118403       -1.1493139675        1.9191619019
 C         -7.6965318707       -2.2608141976        1.2482177724
 C         -7.3037841809       -2.5263833581       -0.0553078776
 C         -6.4156582908       -1.6770289986       -0.6957829480
 H         -6.0907780210       -1.8380306391       -1.7104117580
 H         -7.6872272013       -3.3902154682       -0.5739248072
 H         -8.3897007708       -2.9223052272        1.7434348827
 H         -7.5187228100       -0.9437731270        2.9312336419
 H         -5.9229197698        0.5844273321        1.7643515311
 H         -3.3429237904       -0.8408500091        0.2915618912
 H         -2.8023226202        1.3835224397       -2.5054404497
 H         -0.6960540499        2.6556760291       -2.7915130105
 H          1.1401510003        2.3943314091       -1.1679663307
 H          0.7953422301        0.1865137803        1.8741279902
 C          1.5848709706        2.1580685800        1.6808208394
 C          0.6757357910        2.7968467006        2.6853766393
 C          1.9839423909        2.2110173204        3.1233913793
 H          2.7795151011        2.8808357503        3.4132624689
 H          1.9674360207        1.2860973106        3.6818908496
 H          0.5696499413        3.8706863806        2.6740103189
 H         -0.2298683091        2.2699164110        2.9464896696
 H          2.1142979307        2.8063634196        0.9961352790
