  62
        -98.93112610
 C         -2.4369402729       -1.3267397286        0.3884127780
 C         -2.4160465816       -0.0961882191       -0.3089435618
 C         -3.6328226058        0.7392177057       -0.2106816564
 C         -4.6769991818        0.3004789295        0.5130051482
 C         -6.0098349276        0.9631107532        0.7538683722
 C         -6.6905641472        1.6044339418       -0.4651625813
 C         -6.7065512015        3.1332209838       -0.4180726317
 H         -7.5316525645        3.4932554160       -1.0367294743
 H         -6.9083418963        3.4470623774        0.6082140976
 C         -5.4293668377        3.8106442485       -0.9117388150
 H         -5.3610340482        3.7050948398       -1.9967040791
 H         -5.5164071250        4.8778351688       -0.6945005519
 C         -4.1304697049        3.2888116227       -0.2937623425
 H         -4.2611186063        3.1041339940        0.7718414886
 H         -3.3766899476        4.0730719222       -0.3903824690
 C         -3.5830585681        2.0298231551       -0.9824167444
 H         -4.0827903534        1.8842645504       -1.9447901794
 H         -2.5223166726        2.1701121632       -1.2133936643
 H         -6.2137860489        1.2584153005       -1.3810345867
 H         -7.7250128804        1.2577249018       -0.4892007119
 H         -6.6467917186        0.1754483370        1.1629491676
 H         -5.8892834212        1.7069273749        1.5453887093
 O         -4.6409698543       -0.8824691030        1.1925001345
 C         -3.5342181139       -1.7083381176        1.1637301728
 O         -3.6448662598       -2.7374726306        1.8596897287
 H          0.8688145483       -1.7656191938       -1.3024627206
 C          1.0099278407       -1.3525299980       -0.3156837100
 C          0.0247524384       -1.5117678096        0.6449732345
 C          0.2217076630       -0.9433635098        1.9004032890
 C          1.3712050669       -0.2304349431        2.1812921823
 C          2.3489412002       -0.0658756161        1.2157186565
 C          2.1628326822       -0.6280747961       -0.0392074302
 N          3.1403101168       -0.4454687190       -1.0301531212
 S          4.7492393277       -0.7127751246       -0.6519448039
 O          5.3894427726       -1.0137117888       -1.9141152761
 O          4.8906575942       -1.7034932752        0.3902795197
 C          5.3274577947        0.8687372575       -0.0729833180
 C          5.1398760589        1.9691739432       -0.8861133420
 C          5.5929691238        3.2052928478       -0.4539662987
 C          6.2253075438        3.3191979904        0.7752588922
 C          6.4093716991        2.2042162507        1.5783832312
 C          5.9575605075        0.9648752834        1.1521950190
 H          6.0733763990        0.0718385285        1.7456417509
 H          6.9014867550        2.2947853900        2.5334476176
 H          6.5766509126        4.2827877738        1.1090873395
 H          5.4510742463        4.0747817699       -1.0755368635
 H          4.6455556446        1.8393845019       -1.8344203785
 H          2.8972462386       -0.8382655925       -1.9274065484
 H          3.2462800801        0.4929225625        1.4258367686
 H          1.5074521450        0.2056013029        3.1594426381
 H         -0.5460496641       -1.0650289286        2.6529702474
 C         -1.2504822701       -2.2761859194        0.3895604932
 H         -1.4214056809       -2.9370074291        1.2553715374
 C         -1.1731868156       -3.1817434524       -0.8308412908
 C         -2.4216715577       -3.6784048844       -1.4951096326
 C         -1.5236470355       -2.7171646293       -2.2112870686
 H         -0.9365332570       -3.0880202893       -3.0393761552
 H         -1.8491781069       -1.6961046769       -2.3301682844
 H         -3.3656709297       -3.3140411076       -1.1164631862
 H         -2.4525746963       -4.7044914590       -1.8295066758
 H         -0.3568937204       -3.8940728087       -0.7494668942
 O         -1.4382714724        0.3058532045       -0.9907202461
