  62
        -98.93822098
 C         -2.0277711799       -1.0594527157        0.2118840313
 C         -2.3835335107        0.1149488077       -0.4890089805
 C         -3.6640135021        0.7543394255       -0.1168499221
 C         -4.4018631925        0.2165559121        0.8712467052
 C         -5.7377390891        0.6703726626        1.3963758726
 C         -6.8990054272        0.2983915820        0.4602582382
 C         -6.6359792366        0.5533918912       -1.0214926686
 H         -5.7490053430       -0.0034527434       -1.3289291539
 H         -7.4827350211        0.1502472529       -1.5832154338
 C         -6.4743692432        2.0210302909       -1.4100603577
 H         -6.3817263781        2.0602913251       -2.4984897899
 H         -7.3800376494        2.5662337065       -1.1349523483
 C         -5.2696533169        2.7452045242       -0.8053343303
 H         -5.4532749745        3.0156292935        0.2310317977
 H         -5.1473118661        3.6847206279       -1.3525468561
 C         -3.9463440824        1.9962820662       -0.9285175721
 H         -3.1308666895        2.6919312313       -0.6948485016
 H         -3.7920399048        1.7143623834       -1.9763569341
 H         -7.7864948972        0.8495864596        0.7755665299
 H         -7.1027708716       -0.7681341369        0.5830707105
 H         -5.8861293638        0.1634234527        2.3524696136
 H         -5.7207613978        1.7390145494        1.5886885237
 O         -4.0127193062       -0.9105712622        1.5319559949
 C         -2.8414633076       -1.5699897358        1.2281896120
 O         -2.6324686217       -2.5888251069        1.9167575585
 O         -1.6871396076        0.6348072041       -1.4031781254
 C         -0.7488253994       -1.8402013475       -0.0541836917
 C          0.4270073001       -1.1538023234        0.5991777872
 C          1.0349301842       -1.7076109621        1.7201782449
 C          2.0983712666       -1.0691380705        2.3340399277
 C          2.5786977975        0.1308809623        1.8416126571
 C          1.9792811663        0.6901684386        0.7198785368
 C          0.9177760163        0.0448288958        0.1010346213
 H          0.4406179728        0.4965848895       -0.7555665295
 N          2.4573802888        1.9079502554        0.2108877313
 S          4.1103271317        2.1312567464        0.1124369146
 O          4.6214992779        2.5466865765        1.3957842501
 O          4.3060134098        3.0660938413       -0.9735928804
 C          4.7823372219        0.5320336399       -0.3089035762
 C          5.7266318386       -0.0518937246        0.5106068352
 C          6.2220815255       -1.3027754605        0.1786468113
 C          5.7636999648       -1.9461308304       -0.9601481827
 C          4.8167956475       -1.3448220110       -1.7752534451
 C          4.3194974964       -0.0936485894       -1.4496171165
 H          3.5843958306        0.3992998711       -2.0654796558
 H          4.4612698448       -1.8472696747       -2.6604039221
 H          6.1455293861       -2.9219169796       -1.2156943987
 H          6.9594124227       -1.7715717932        0.8102153804
 H          6.0511641948        0.4821825905        1.3889154300
 H          1.9810569347        2.2186764391       -0.6227385145
 H          3.3948050521        0.6502223140        2.3174641532
 H          2.5562858033       -1.5078637947        3.2073222459
 H          0.6535006811       -2.6359923953        2.1199441613
 H         -0.8887067007       -2.8075223258        0.4459976051
 C         -0.5066183274       -2.0957274429       -1.5290435338
 C          0.4225455004       -3.1996887376       -1.9310828806
 C         -1.0528562313       -3.3436789052       -2.1517819071
 H         -1.4337941422       -3.2917777947       -3.1608426682
 H         -1.6018542458       -4.0216163060       -1.5141932224
 H          1.0561484913       -3.0507047250       -2.7916334254
 H          0.8764092408       -3.7823505609       -1.1439848862
 H         -0.5168576256       -1.1979963515       -2.1321977033
