  62
        -98.93780556
 C          1.9493842264       -1.1656250497        0.1181253333
 C          2.4387410701        0.0015318743        0.7496717190
 C          3.8976872065        0.2053615936        0.6967889687
 C          4.6717449446       -0.7053650065        0.0823392635
 C          6.1737499834       -0.7207126167       -0.0547266457
 C          6.8659046717        0.6029895087       -0.4084555479
 C          6.0497192083        1.5437655356       -1.3068653820
 H          6.6687610702        1.8536142621       -2.1508757905
 H          5.1844180655        1.0174065601       -1.7131849536
 C          5.5819946199        2.8069474524       -0.5799193467
 H          6.4052494926        3.1844759578        0.0306026056
 H          5.3479021661        3.5735863393       -1.3224509131
 C          4.3440888748        2.6381435685        0.3005011180
 H          4.1907777286        3.5713135504        0.8480915573
 H          3.4595937528        2.4866917149       -0.3246670246
 C          4.4026447658        1.4797160150        1.3096024462
 H          5.4031086877        1.3626514137        1.7191854831
 H          3.7156075946        1.7132555935        2.1276811487
 H          7.8021612951        0.3455242018       -0.9065370543
 H          7.1328103128        1.1304226842        0.5062653139
 H          6.5960620423       -1.1072885760        0.8773262741
 H          6.3797830611       -1.4604682999       -0.8319625158
 O          4.1551937064       -1.8216407502       -0.5061663038
 C          2.7952245332       -2.0761192261       -0.5127005121
 O          2.4690585145       -3.1246766966       -1.1051582323
 H         -1.6033397755        0.1012863061        1.1288207645
 C         -1.3033328648        0.3719338568        0.1311634569
 C         -0.2836022871       -0.3086759340       -0.5135206519
 C          0.0821927750        0.0950335397       -1.7960962828
 C         -0.5433722104        1.1637378947       -2.4063849737
 C         -1.5565286554        1.8467418866       -1.7555903697
 C         -1.9336545673        1.4497446936       -0.4789536389
 N         -2.9424057894        2.1420616221        0.2084305730
 S         -4.1207509910        1.3300271503        1.0689772786
 O         -5.1394572905        2.3274278251        1.3115214257
 O         -3.5550789720        0.6994622923        2.2333097586
 C         -4.7351243030        0.1027425621       -0.0694707079
 C         -5.6495610433        0.4992030665       -1.0262289373
 C         -6.0913917188       -0.4267818591       -1.9567160234
 C         -5.6066895242       -1.7256871742       -1.9205011973
 C         -4.6897029235       -2.1076660216       -0.9537413969
 C         -4.2466271651       -1.1866598014       -0.0173333126
 H         -3.5385746325       -1.4486385018        0.7511448401
 H         -4.3158200127       -3.1188092260       -0.9249276122
 H         -5.9474857696       -2.4460743915       -2.6473386013
 H         -6.8087157411       -0.1345219661       -2.7066072566
 H         -6.0097034753        1.5151270669       -1.0121817134
 H         -3.3400255680        2.9163164875       -0.3026537282
 H         -2.0405668831        2.6889595966       -2.2262582418
 H         -0.2425405900        1.4690480269       -3.3973376275
 H          0.8773004145       -0.4373559468       -2.3011361370
 C          0.4597529438       -1.4625452355        0.1135086805
 H          0.3306251299       -2.3451288447       -0.5298293607
 C         -0.0073803400       -1.8085258445        1.5112580753
 C         -1.1700468829       -2.7323453336        1.7086189764
 C          0.2188201806       -3.1961324263        2.0284214862
 H          0.4984514755       -3.3211790600        3.0637516655
 H          0.6893058686       -3.9030065091        1.3602444247
 H         -1.8496248130       -2.5381678903        2.5256090168
 H         -1.6389544531       -3.1374390882        0.8243274154
 H          0.1213408642       -0.9919204559        2.2128026600
 O          1.7004877341        0.8339066263        1.3376690178
