  62
        -98.93467674
 C          2.2181877991        0.9776974096       -0.1307066540
 C          2.9525555675        0.4236040129        0.9492657556
 C          3.7827624328       -0.7564027864        0.6599016901
 C          3.7916815338       -1.2614689448       -0.5850534311
 C          4.5198271165       -2.4753627708       -1.1062052697
 C          5.9636679042       -2.6929930202       -0.6350465918
 C          6.7708082899       -1.4068334275       -0.4055819085
 H          7.7163947970       -1.4799506020       -0.9459153888
 H          6.2299213287       -0.5494085748       -0.8096731450
 C          7.0906069735       -1.1584057190        1.0703539708
 H          7.3953225728       -2.1028884755        1.5262541191
 H          7.9405009074       -0.4748348252        1.1350666445
 C          5.9563544617       -0.5488691156        1.8933420483
 H          6.2724829892       -0.5288717269        2.9389688608
 H          5.7928832578        0.4883159829        1.5885684690
 C          4.6057567615       -1.2781718121        1.8026180050
 H          4.0385818913       -1.0504159582        2.7092292814
 H          4.7415424319       -2.3552642768        1.7412748532
 H          5.9629409428       -3.2809497003        0.2816102204
 H          6.4544425234       -3.3007636203       -1.3971607631
 H          4.5014365962       -2.3719930712       -2.1940243086
 H          3.9241302853       -3.3590996534       -0.8581270404
 O          3.0582872371       -0.7102750801       -1.5917078743
 C          2.2596644921        0.4098603553       -1.4028707877
 O          1.6639139841        0.7715343772       -2.4360876896
 O          2.9144281332        0.8998205566        2.1148065205
 C          1.3802027656        2.2076521079        0.1763234268
 C         -0.0421744967        1.8167865927        0.4859394493
 C         -0.6393834425        2.1697589140        1.6898236453
 C         -1.9376986594        1.7806953754        1.9719526710
 C         -2.6658674612        1.0371648843        1.0606417798
 C         -2.0754067008        0.6734919933       -0.1428250657
 C         -0.7744104221        1.0636045134       -0.4224087589
 H         -0.3174126049        0.7751755969       -1.3580442073
 N         -2.8078129214       -0.0799931268       -1.0804587156
 S         -3.4623931947       -1.5331167215       -0.5453284562
 O         -2.6900699743       -2.0912741010        0.5416191246
 O         -3.5954772117       -2.3538375788       -1.7291856474
 C         -5.0854560871       -1.0759504578        0.0274337299
 C         -5.4639372939       -1.3567970042        1.3256184326
 C         -6.7341788890       -0.9938552802        1.7462180305
 C         -7.5982560959       -0.3609704591        0.8658054619
 C         -7.2035286833       -0.0885807813       -0.4357713187
 C         -5.9357723728       -0.4496987557       -0.8629343316
 H         -5.5905742418       -0.2606104614       -1.8656775922
 H         -7.8782647246        0.4035122768       -1.1175955516
 H         -8.5854969576       -0.0786875091        1.1959104660
 H         -7.0427775775       -1.2051310203        2.7574297367
 H         -4.7553216391       -1.8449080618        1.9757509491
 H         -2.3046936267       -0.2247052219       -1.9451004942
 H         -3.6768164318        0.7309657609        1.2745968536
 H         -2.3881606730        2.0596478367        2.9121346037
 H         -0.0724545726        2.7370398861        2.4133223799
 H          1.8181840465        2.6135661276        1.1017247469
 C          1.4922085757        3.2879861716       -0.8917273702
 C          0.3508525609        3.7372807906       -1.7497308114
 C          0.8619029776        4.6300715069       -0.6618776666
 H          1.4154263845        5.5166035406       -0.9313685408
 H          0.2472928258        4.7410196477        0.2187972363
 H          0.5695774638        3.9874568655       -2.7767649922
 H         -0.6108168147        3.2685751339       -1.6136182325
 H          2.4691450920        3.2857298701       -1.3649259741
