  62
        -98.93789473
 C         -1.6841786107       -0.9392985908       -0.0231012796
 C         -3.0075437431       -1.2407883451        0.3688058980
 C         -4.0214053763       -0.1955273336        0.1354856990
 C         -3.6369143902        0.9776594917       -0.3991527486
 C         -4.4780577173        2.1835312590       -0.7343968227
 C         -5.5264080532        2.6071774915        0.3059634673
 C         -6.9663165895        2.3437346285       -0.1383638224
 H         -7.6287101601        3.0242218015        0.4013697348
 H         -7.0512841340        2.5816628807       -1.2007674300
 C         -7.4711570373        0.9219870774        0.1020124955
 H         -8.4453416345        0.8304287972       -0.3841070231
 H         -7.6272776943        0.7696640636        1.1722223785
 C         -6.5589097493       -0.1920182891       -0.4151991215
 H         -7.1708033352       -1.0853059674       -0.5580273902
 H         -6.1493285439        0.0709133856       -1.3899146326
 C         -5.4218299826       -0.5542830754        0.5519621831
 H         -5.6194013507       -0.1236828725        1.5378816168
 H         -5.3962747588       -1.6386200244        0.6987230419
 H         -5.4171008580        3.6804684840        0.4696918990
 H         -5.3267839345        2.1144788885        1.2561641966
 H         -3.7615934189        2.9932931070       -0.8897099555
 H         -4.9626647068        2.0089882072       -1.6983592742
 O         -2.3429720629        1.2278686016       -0.7523298528
 C         -1.3410865370        0.2874584294       -0.5871670587
 O         -0.2158355229        0.6607623018       -0.9669740279
 H          2.1240027055       -1.9489338507       -0.3433320845
 C          1.8520926347       -1.4990286337        0.5961882736
 C          0.5270990626       -1.4303453459        0.9954257528
 C          0.2307990186       -0.8391650681        2.2220011164
 C          1.2321009490       -0.3177974858        3.0169672886
 C          2.5526610755       -0.3680135236        2.6034964308
 C          2.8605793538       -0.9626241431        1.3871075311
 N          4.1954274579       -1.0566884113        0.9492169358
 S          4.6310035830       -0.4210804745       -0.5376588065
 O          3.8865783357       -1.0661639208       -1.5867976898
 O          6.0693188126       -0.5704492458       -0.5897662986
 C          4.2212486012        1.3115994677       -0.4266415292
 C          5.2331818250        2.2069751615       -0.1353579190
 C          4.9230537365        3.5484930467        0.0130129222
 C          3.6083907494        3.9698532508       -0.1215554638
 C          2.6053270097        3.0574702657       -0.4083429327
 C          2.9075592134        1.7128522827       -0.5636975657
 H          2.1319462498        0.9975310378       -0.7881660764
 H          1.5787049766        3.3708653750       -0.5140622042
 H          3.3633758694        5.0137733827       -0.0035750573
 H          5.7030850363        4.2591298722        0.2343418972
 H          6.2404871838        1.8338632221       -0.0430708209
 H          4.8707184552       -0.7646865121        1.6422897795
 H          3.3369122358        0.0449416865        3.2197237190
 H          0.9843913504        0.1382041632        3.9636023705
 H         -0.8017510706       -0.7933152627        2.5409783312
 C         -0.6013334080       -1.9856385571        0.1633656962
 H         -1.0761432523       -2.8016786178        0.7284434406
 C         -0.1564435738       -2.5234172761       -1.1804985881
 C          0.3803047241       -3.9178486486       -1.2941850702
 C         -0.9739740834       -3.5886612286       -1.8446459715
 H         -1.1014468532       -3.5482852199       -2.9160825750
 H         -1.8437356255       -3.9479053144       -1.3140447387
 H          0.4308364452       -4.5086406064       -0.3920024443
 H          1.1882875513       -4.1013518992       -1.9866524796
 H          0.2776479852       -1.7594602274       -1.8171524270
 O         -3.3327240721       -2.3399317356        0.8946765356
