  62
        -98.93495801
 C         -1.7122432003       -0.2306484484        0.4639503265
 C         -2.8978708486       -0.3195179047        1.2333952890
 C         -4.1553407526       -0.5472489934        0.5004811747
 C         -4.1302680612       -0.6139181722       -0.8435618929
 C         -5.2331243862       -0.8684195568       -1.8497831667
 C         -6.7007936785       -0.7743946255       -1.4406712742
 C         -7.1754705702        0.6319182006       -1.0760605867
 H         -8.2011958573        0.5612827789       -0.7075129399
 H         -7.1896916746        1.2402093143       -1.9839905186
 C         -6.3265974183        1.3682866404       -0.0426206908
 H         -6.7746451382        2.3528426890        0.1175449480
 H         -5.3237999045        1.5337336584       -0.4421320939
 C         -6.2124041045        0.6835921024        1.3180159755
 H         -7.2099073580        0.4799397153        1.7122287478
 H         -5.7208395133        1.3840025541        1.9988253175
 C         -5.4007925815       -0.6233510659        1.3358616055
 H         -6.0114859640       -1.4725565438        1.0385763633
 H         -5.0705989951       -0.8001070427        2.3637144209
 H         -6.9122237057       -1.4688520374       -0.6329048818
 H         -7.2855056271       -1.1054978472       -2.3032847326
 H         -5.0464364176       -0.1750371892       -2.6760190417
 H         -5.0482216053       -1.8736424294       -2.2445117634
 O         -2.9668645741       -0.4882876762       -1.5452731164
 C         -1.7398890224       -0.2874492048       -0.9290313112
 O         -0.7902815522       -0.1768454460       -1.7252953554
 H          2.1835969588        0.0299176351        0.2311199655
 C          1.6796007578        0.9749618022        0.1226739211
 C          0.3694819773        1.1239365984        0.5459672926
 C         -0.2507459801        2.3584454697        0.3652753672
 C          0.4167612595        3.4042348270       -0.2394473753
 C          1.7297422674        3.2528364008       -0.6518965106
 C          2.3620158769        2.0317315387       -0.4646279792
 N          3.6924647167        1.8343629953       -0.8669000866
 S          4.7369137711        1.0434658270        0.1748603969
 O          4.3986051974        1.2962711996        1.5565707174
 O          6.0585925067        1.4638404699       -0.2407884461
 C          4.5473897275       -0.6871200210       -0.1949919349
 C          4.5258584269       -1.0878878771       -1.5159835561
 C          4.4246737750       -2.4397819257       -1.8024724370
 C          4.3541506838       -3.3631876937       -0.7703019635
 C          4.3791791373       -2.9445326113        0.5513916730
 C          4.4776182483       -1.5933823034        0.8445180340
 H          4.4911259588       -1.2226775624        1.8572135505
 H          4.3204153586       -3.6634756739        1.3532257740
 H          4.2750068810       -4.4149188455       -0.9964946891
 H          4.3999850810       -2.7694343618       -2.8286067867
 H          4.5818601436       -0.3430684164       -2.2920819943
 H          4.1309729045        2.6388289774       -1.2912860678
 H          2.2565254265        4.0714382377       -1.1188596699
 H         -0.0833652788        4.3504080376       -0.3836340031
 H         -1.2735275678        2.4818872758        0.6959148206
 C         -0.4081226326        0.0105692734        1.2013398747
 H         -0.7209453035        0.3652041729        2.1985829304
 C          0.4206565696       -1.2447996924        1.4299245737
 C         -0.2202317902       -2.5982516444        1.4866269082
 C          0.6741031544       -2.2409339498        0.3394276485
 H          1.6493515730       -2.7019897473        0.2841624224
 H          0.2279372805       -2.0465345018       -0.6228828277
 H         -1.2841732180       -2.6565720474        1.3082322940
 H          0.1386869449       -3.3032267348        2.2212060978
 H          1.2340327195       -1.0694832766        2.1285002442
 O         -2.9078992498       -0.2142246805        2.4892862279
