  62
        -98.94414023
 C          2.2013517434        0.7789727136       -0.0284526808
 C          2.8924505489        0.0695253737        0.9816307072
 C          3.6858725255       -1.0817000293        0.5311314714
 C          3.6799429302       -1.4135916972       -0.7732043855
 C          4.4834794341       -2.5279010818       -1.3772947304
 C          5.8548424947       -2.0278112696       -1.8527915999
 C          6.6082397884       -1.2041980291       -0.8083058194
 H          7.5724917041       -0.9317256228       -1.2425945754
 H          6.0637069566       -0.2747949849       -0.6265562998
 C          6.8352113785       -1.9266521073        0.5270137534
 H          7.8679167115       -1.7639349449        0.8424385050
 H          6.7026523501       -3.0010597368        0.3947320659
 C          5.9401248249       -1.4433012532        1.6696085443
 H          5.9991889767       -0.3545921362        1.7460890685
 H          6.3271425071       -1.8580506718        2.6042139506
 C          4.4614580504       -1.8395648706        1.5718102957
 H          4.3789544549       -2.9160761201        1.4076144579
 H          3.9893772654       -1.6017377316        2.5299096450
 H          6.4561869337       -2.8920895947       -2.1403863516
 H          5.7079381242       -1.4054841365       -2.7384569752
 H          4.6089845660       -3.3197634095       -0.6413208664
 H          3.9338230748       -2.9230566939       -2.2332232448
 O          2.9674512162       -0.7347423907       -1.7078614015
 C          2.2172907668        0.3814344843       -1.3657617026
 O          1.6221024125        0.9129921518       -2.3206362611
 H         -0.0642970829       -0.1760191424        0.8673756115
 C         -0.6644233557        0.5754436406        0.3676666037
 C         -0.0738432345        1.7819885771        0.0110554075
 C         -0.8600657880        2.7422138842       -0.6113503560
 C         -2.1925024837        2.4862014142       -0.8866669516
 C         -2.7695838706        1.2769273328       -0.5472979256
 C         -1.9968911651        0.3142360083        0.0895773489
 N         -2.5725636952       -0.9222570856        0.4337596301
 S         -3.9969809322       -0.9078817613        1.3246180170
 O         -4.0924080983        0.2752016170        2.1481604612
 O         -4.0219689780       -2.1777923428        2.0173052399
 C         -5.2773023203       -0.8970523350        0.0877842744
 C         -6.2179473336        0.1141685394        0.0776649776
 C         -7.2095519074        0.0967235408       -0.8909656633
 C         -7.2431983857       -0.9265402676       -1.8258526477
 C         -6.2926375746       -1.9363601552       -1.8000292223
 C         -5.2991411411       -1.9251611274       -0.8341693256
 H         -4.5443200791       -2.6917205005       -0.7770322988
 H         -6.3220163624       -2.7304877827       -2.5286277782
 H         -8.0148756312       -0.9376877898       -2.5792842054
 H         -7.9496264063        0.8804178160       -0.9127270069
 H         -6.1490038345        0.8914123683        0.8219643316
 H         -1.9148819587       -1.5759236913        0.8335946727
 H         -3.8043316018        1.0719222446       -0.7676321986
 H         -2.7891965158        3.2395571486       -1.3777677070
 H         -0.4291717572        3.6908544235       -0.8857933679
 C          1.3799551688        1.9952850527        0.3564509057
 H          1.4584107045        2.0659904060        1.4523005378
 C          1.9730237590        3.2476057616       -0.2546653870
 C          1.8244537874        4.5697139873        0.4352565067
 C          3.1563206566        3.8838724784        0.4088986870
 H          3.9380775986        4.2939876590       -0.2126783626
 H          3.5171931519        3.4292897137        1.3202814127
 H          1.2830049224        4.5881535145        1.3691095804
 H          1.6941897946        5.4550764251       -0.1685121429
 H          1.9577837173        3.2277643424       -1.3385580326
 O          2.8428079743        0.3806656029        2.2035789709
