  62
        -98.93810362
 C         -1.2875430902       -1.3804118300        0.1914928200
 C         -1.4952762199       -0.0170494899        0.5228249096
 C         -2.6943236497        0.6352095702       -0.0309709807
 C         -3.5312136798       -0.0794791098       -0.8055146107
 C         -4.8037487496        0.3097554303       -1.5289838009
 C         -5.4978139893        1.6354692205       -1.2287358014
 C         -6.1290550495        1.7247673910        0.1605225485
 H         -6.4969928793        2.7429091611        0.3051292382
 H         -6.9906516297        1.0529787312        0.1934918185
 C         -5.2145813098        1.3560641011        1.3260784687
 H         -5.7963230699        1.4444846214        2.2477916386
 H         -4.9105558000        0.3110456410        1.2378518590
 C         -3.9673851396        2.2241999509        1.4787467587
 H         -3.4937352698        1.9547012410        2.4266133888
 H         -4.2569674094        3.2752430709        1.5367467384
 C         -2.9111909195        2.0653129804        0.3719336289
 H         -3.1538949792        2.6748677602       -0.4949346613
 H         -1.9532826795        2.4147444803        0.7659406689
 H         -4.8145936291        2.4633237003       -1.3926006815
 H         -6.3020475692        1.7391192205       -1.9622582115
 H         -4.5574377494        0.2808448000       -2.5960203209
 H         -5.5080712098       -0.5102293195       -1.3555407508
 O         -3.2846041300       -1.3865963199       -1.1061909103
 C         -2.1703643502       -2.0669013000       -0.6397719900
 O         -2.1102634704       -3.2458301901       -1.0400786497
 O         -0.7054369799        0.6337837801        1.2569064396
 C         -0.0351929604       -2.0300105401        0.7550176603
 C          1.0817566498       -1.9445886306       -0.2568799595
 C          1.0338216398       -2.6518507409       -1.4541066094
 C          2.0601175700       -2.5358925213       -2.3730362392
 C          3.1436645001       -1.7115454415       -2.1233672693
 C          3.1998432401       -1.0007183512       -0.9299350695
 C          2.1721836099       -1.1251386008       -0.0046112296
 H          2.2267814999       -0.5727161505        0.9211415403
 N          4.2909916402       -0.1725465514       -0.6478284295
 S          4.1963459003        1.1029174489        0.4167588802
 O          5.3473918305        1.9171977486        0.0857833401
 O          4.1501291600        0.6164446293        1.7734956203
 C          2.7079930306        2.0090741191        0.0335175597
 C          2.3536863708        2.2081409589       -1.2856863004
 C          1.2274082010        2.9633417890       -1.5680168807
 C          0.4864379009        3.5148807894       -0.5346965610
 C          0.8581359707        3.3097383497        0.7837753591
 C          1.9773693605        2.5471016795        1.0722221295
 H          2.2886100603        2.3497984997        2.0855353396
 H          0.2781392107        3.7310543500        1.5890748989
 H         -0.3892045589        4.1039580796       -0.7585369913
 H          0.9301418712        3.1191402188       -2.5928690408
 H          2.9475555808        1.7745897286       -2.0739721902
 H          4.9382667803       -0.0133370617       -1.4043739595
 H          3.9424302102       -1.6208406718       -2.8433853792
 H          2.0140769200       -3.0894234316       -3.2987352991
 H          0.1791392397       -3.2772230608       -1.6613008893
 H          0.2527110396       -1.4076376900        1.6135307602
 C         -0.2320332907       -3.4509744500        1.2421134607
 C          0.7774227390       -4.0315165799        2.1851545709
 C         -0.5975220810       -3.6909881595        2.6746843907
 H         -1.2792502612       -4.4962277393        2.9039060108
 H         -0.7107369809       -2.8281091493        3.3150174704
 H          1.0431205788       -5.0720574800        2.0794662212
 H          1.5967851691       -3.3979008200        2.4915410309
 H         -0.6684222608       -4.1090333701        0.5028334308
