  62
        -98.93402608
 C          1.2228283934        1.4030714527        0.6429426245
 C          1.6996528488        0.9372283243       -0.6061614397
 C          2.8377321209       -0.0127362766       -0.5654861471
 C          3.2555928755       -0.4943121648        0.6187015955
 C          4.4117737175       -1.3990240745        0.9940799382
 C          5.3373837118       -1.9571865817       -0.0827476376
 C          4.7344222834       -3.1030885804       -0.8982276686
 H          5.3804760129       -3.3004391700       -1.7558380289
 H          4.7286806614       -4.0004568573       -0.2744625547
 C          3.3056927381       -2.8762319845       -1.3841382266
 H          2.6612141821       -2.6753098809       -0.5281887311
 H          2.9528549259       -3.8029111585       -1.8443958634
 C          3.1369229269       -1.7578173190       -2.4081786246
 H          2.0990475248       -1.7706137934       -2.7539316576
 H          3.7724350544       -1.9555575427       -3.2741430604
 C          3.4482184013       -0.3426612456       -1.9002642512
 H          4.5220724072       -0.1688315777       -1.8811962951
 H          3.0167265049        0.3669668747       -2.6132299616
 H          6.2213106689       -2.3462697739        0.4292736730
 H          5.6796062181       -1.1536442583       -0.7287282974
 H          3.9907353940       -2.2262644914        1.5745785950
 H          5.0118928398       -0.8115312531        1.6974645890
 O          2.6254725353       -0.1591570130        1.7847860304
 C          1.6419851780        0.8081868831        1.8356607090
 O          1.2158865994        1.0401487941        2.9848553484
 O          1.2431420327        1.3032334959       -1.7175339422
 C          0.2036229998        2.5218747673        0.7862340574
 C         -1.0468882708        2.2383399274       -0.0054103988
 C         -1.2534326744        2.7322449211       -1.2872213957
 C         -2.4069800100        2.4148964409       -1.9830584598
 C         -3.3847872269        1.6198534107       -1.4106369203
 C         -3.1944805307        1.1371878698       -0.1237716319
 C         -2.0288223424        1.4387881427        0.5658959877
 H         -1.8745850905        1.0467700959        1.5639963525
 N         -4.1956749243        0.3201906746        0.4589100520
 S         -4.2202995766       -1.2543576892       -0.1119265276
 O         -4.4368971028       -1.2261237782       -1.5342675636
 O         -5.2068833687       -1.9524125876        0.6792897514
 C         -2.5873369209       -1.8605662236        0.2657787222
 C         -2.3808294637       -2.5429508807        1.4483368390
 C         -1.0896594346       -2.9017639837        1.7988161428
 C         -0.0310905707       -2.5568855392        0.9725418416
 C         -0.2549814660       -1.8702966325       -0.2100848850
 C         -1.5443893060       -1.5148922735       -0.5696636818
 H         -1.7464071969       -0.9765066732       -1.4816625293
 H          0.5675103073       -1.5886731760       -0.8475001717
 H          0.9762317002       -2.8199393571        1.2569887535
 H         -0.9086427372       -3.4369398100        2.7171797112
 H         -3.2322057787       -2.7845552858        2.0645634133
 H         -4.1423474338        0.2929803438        1.4684204912
 H         -4.2830841364        1.3533666746       -1.9432889484
 H         -2.5481460622        2.7932475139       -2.9840655599
 H         -0.4932192548        3.3424530648       -1.7463689478
 H         -0.0709346883        2.5048340809        1.8528437841
 C          0.7568236294        3.9142513996        0.5104245624
 C          2.1160839166        4.3015263983        1.0110018445
 C          1.8591662010        4.2023385213       -0.4612077935
 H          1.8018966917        5.1176052300       -1.0322434430
 H          2.2915003384        3.3784944932       -1.0049718086
 H          2.2482001538        5.2784098317        1.4509263221
 H          2.7090353679        3.5273385894        1.4772381180
 H         -0.0192178842        4.6694390353        0.5930976414
