  62
        -98.94471550
 C         -1.9762076843        0.9182025675        0.4376106854
 C         -3.0501644422        1.2416208836       -0.4293282788
 C         -4.3490104908        0.6406844624       -0.1023024791
 C         -4.4483859805       -0.1649106126        0.9708585174
 C         -5.6951755977       -0.8898122814        1.3856044468
 C         -5.7627428697       -2.2859635654        0.7509877684
 C         -5.5040822118       -2.2929860634       -0.7557442254
 H         -4.4685527587       -1.9978847099       -0.9411408841
 H         -5.6089564722       -3.3247400075       -1.0983763779
 C         -6.4425608630       -1.3873200135       -1.5655418170
 H         -6.7843472676       -1.9359290871       -2.4457320240
 H         -7.3253349814       -1.1443997426       -0.9729640049
 C         -5.7984064861       -0.0943322693       -2.0690720942
 H         -4.8628031355       -0.3280004213       -2.5833596159
 H         -6.4713547985        0.3570031749       -2.8029881277
 C         -5.5091150954        0.9671150531       -1.0001842010
 H         -6.4106495793        1.1534194173       -0.4131280192
 H         -5.2374655505        1.8923777078       -1.5165853787
 H         -5.0130346041       -2.9206049441        1.2294261544
 H         -6.7473919448       -2.7105828450        0.9551655739
 H         -5.6873528743       -0.9945154325        2.4718674956
 H         -6.5643788038       -0.3038991231        1.0931114462
 O         -3.3984358625       -0.4500352715        1.7812461112
 C         -2.1353632376        0.0692869140        1.5328836399
 O         -1.2699344690       -0.2903936439        2.3537773055
 O         -2.9265236476        1.9988660296       -1.4283661921
 C         -0.6066643560        1.4973704106        0.1232621446
 C          0.2959984828        0.3763524777       -0.3267010428
 C          0.1835962330       -0.1050155551       -1.6282172401
 C          0.9769869304       -1.1476490266       -2.0690559121
 C          1.8991254657       -1.7343723281       -1.2195616758
 C          2.0119556937       -1.2662727466        0.0820679446
 C          1.2222423898       -0.2118138199        0.5203528400
 H          1.3130556822        0.1320397049        1.5384592545
 N          2.9643495391       -1.8509607262        0.9433641501
 S          4.5554367614       -1.7381121452        0.4270668329
 O          4.7956546871       -2.7239996169       -0.5963171094
 O          5.3640473895       -1.8499901705        1.6201299817
 C          4.6703690688       -0.0981147072       -0.2651562486
 C          4.6404219629        0.0723747305       -1.6341333921
 C          4.6399754804        1.3593270934       -2.1481354613
 C          4.6642798646        2.4465168579       -1.2886825536
 C          4.6972824654        2.2583813923        0.0846712851
 C          4.6953697858        0.9744545372        0.6041479522
 H          4.7257636477        0.7881020698        1.6658384532
 H          4.7182453064        3.1068230877        0.7496716501
 H          4.6583085353        3.4475995549       -1.6904445083
 H          4.6153164220        1.5091885309       -3.2155050780
 H          4.6228263551       -0.7995754684       -2.2668624575
 H          2.8822069763       -1.5302710901        1.8977155204
 H          2.5327160612       -2.5447727975       -1.5425602987
 H          0.8783607159       -1.5077986364       -3.0818647447
 H         -0.5419848645        0.3486473693       -2.2890351520
 H         -0.7676026687        2.1662871609       -0.7329527020
 C         -0.0443664491        2.3043649805        1.2747829610
 C          1.1627546920        3.1626186087        1.0434030165
 C         -0.1776783811        3.7962646952        1.2601865726
 H         -0.3641770313        4.3048234449        2.1942630307
 H         -0.6754815577        4.2448886836        0.4132502283
 H          1.8984152952        3.2376956299        1.8293718823
 H          1.5790804205        3.1752550765        0.0475749870
 H         -0.1389123412        1.8083883457        2.2332907572
