  62
        -98.94170641
 C         -2.1253156452       -0.7984359698        0.2557955756
 C         -2.9871416893       -0.2192711865        1.2217222698
 C         -3.7897800753        0.9228373481        0.7708161657
 C         -3.6164302584        1.4083114631       -0.4714392605
 C         -4.3445918214        2.5788985467       -1.0742212950
 C         -5.7146055452        2.2210477081       -1.6670774133
 C         -6.8095076675        1.9211315483       -0.6423000007
 H         -7.7573710576        1.9024415154       -1.1836884729
 H         -6.8628982712        2.7368037136        0.0794143214
 C         -6.6376625448        0.5868517933        0.0972216397
 H         -5.9333973368       -0.0439593205       -0.4504244419
 H         -7.5920269990        0.0560373149        0.1178746571
 C         -6.1621687484        0.7206605026        1.5440554422
 H         -6.0399795584       -0.2830911065        1.9593340633
 H         -6.9224268768        1.2380800760        2.1331258250
 C         -4.8299051827        1.4650601651        1.7039156964
 H         -4.4715747585        1.3138721297        2.7251815603
 H         -4.9720328471        2.5326335422        1.5372413643
 H         -5.5932389429        1.3636166949       -2.3331964911
 H         -6.0375015952        3.0698129810       -2.2742992060
 H         -4.4637763492        3.3624458817       -0.3251693216
 H         -3.7093487139        2.9595576788       -1.8771630623
 O         -2.7117293163        0.8836551307       -1.3392469149
 C         -1.9600519884       -0.2408925967       -1.0134043564
 O         -1.2003298742       -0.6162016500       -1.9248603416
 H          0.2780029690       -0.0555760815        1.4544819347
 C          0.8073577913       -0.7404564024        0.8021654934
 C          0.1289351909       -1.8384727562        0.2865824056
 C          0.8123608374       -2.6999869007       -0.5602755912
 C          2.1372571646       -2.4598240255       -0.8807301772
 C          2.8086686059       -1.3677149458       -0.3634306632
 C          2.1324701191       -0.4948494586        0.4791631273
 N          2.8065870557        0.6128412120        1.0224080763
 S          3.7205212959        1.5829213113        0.0018025088
 O          3.7802986509        2.8675521130        0.6663302822
 O          3.2065603531        1.5821595060       -1.3480407928
 C          5.3362860310        0.8346799261        0.0464369729
 C          5.9637098385        0.4807142392       -1.1318687603
 C          7.2235608467       -0.0949760350       -1.0735367323
 C          7.8305020384       -0.3042951488        0.1552734324
 C          7.1883144645        0.0602384992        1.3293923562
 C          5.9295870086        0.6372965824        1.2780503688
 H          5.3984044720        0.9376648778        2.1656633627
 H          7.6635146602       -0.1035804721        2.2831500570
 H          8.8098663940       -0.7540849657        0.1979271273
 H          7.7244725306       -0.3776723342       -1.9854788031
 H          5.4497726213        0.6569158643       -2.0636308865
 H          2.2314694819        1.1798468175        1.6286546424
 H          3.8381259116       -1.1753084721       -0.6174740968
 H          2.6546595727       -3.1330148608       -1.5471803511
 H          0.3009199481       -3.5442513846       -0.9920243263
 C         -1.3173657569       -2.0134425810        0.6756070878
 H         -1.3716705869       -2.0049934767        1.7776130516
 C         -1.9103790852       -3.3408451344        0.2275198704
 C         -3.3850741443       -3.4894773441        0.0051246326
 C         -2.4417580632       -3.5584966856       -1.1563089423
 H         -2.2758602831       -4.5185066047       -1.6230932045
 H         -2.4035309726       -2.7276682212       -1.8432234168
 H         -3.9992517459       -2.6071057513        0.1136313767
 H         -3.8655047902       -4.3981149922        0.3355916407
 H         -1.4098633415       -4.1837614442        0.6940414663
 O         -3.0768353065       -0.6349285954        2.4078727670
