  62
        -98.94058560
 C          1.3786259796        1.7369284833       -0.0094050471
 C          0.2708258616        1.4303003561        0.8158804103
 C         -1.0290779872        2.0263606039        0.4399130352
 C         -1.0984394123        2.8075145581       -0.6525494262
 C         -2.3052370632        3.4805906725       -1.2520792085
 C         -3.2102740983        2.5016564925       -2.0137399863
 C         -3.5168245569        1.2040695381       -1.2707502586
 H         -4.1099610151        0.5750133451       -1.9412031454
 H         -2.5832874868        0.6680404468       -1.0839444250
 C         -4.2979581977        1.3716754259        0.0308345269
 H         -4.5569592458        0.3697767639        0.3794354091
 H         -5.2288949674        1.9028157026       -0.1804386942
 C         -3.5701131527        2.0931660859        1.1684463460
 H         -4.1153099535        1.8754958420        2.0910163008
 H         -3.6027653716        3.1717825585        1.0380454657
 C         -2.1328064587        1.6373306110        1.3935114254
 H         -1.8038825942        1.9895266658        2.3784484196
 H         -2.1085834474        0.5438391862        1.4554175943
 H         -2.7130313935        2.2367129052       -2.9505618002
 H         -4.1428699881        3.0144073841       -2.2581329044
 H         -1.9285461747        4.2251686855       -1.9573514206
 H         -2.8660974099        4.0047064202       -0.4839948814
 O         -0.0029101442        3.0778028071       -1.4203238318
 C          1.2381901502        2.5492487099       -1.1347821656
 O          2.1365196040        2.8821347413       -1.9380118853
 O          0.3314671328        0.6811148277        1.8264987826
 C          2.7638389882        1.1680739039        0.2298104011
 C          2.8941495370       -0.2649954325       -0.2390778848
 C          4.1476529963       -0.8083558775       -0.5049635639
 C          4.2688406648       -2.1140923013       -0.9436907751
 C          3.1487095465       -2.9050800915       -1.1325897683
 C          1.8930809214       -2.3744679012       -0.8616048589
 C          1.7788991992       -1.0674835987       -0.4100798015
 H          0.7970777029       -0.6704372677       -0.2190526837
 N          0.7378571113       -3.1506943218       -1.0013930576
 S         -0.8005094557       -2.5307037617       -1.1599282827
 O         -1.5496671463       -3.5969027397       -1.7935443597
 O         -0.8133095763       -1.2648366920       -1.8580182731
 C         -1.4251454151       -2.3299074959        0.4975328782
 C         -2.7834840986       -2.1004354082        0.6096062027
 C         -3.3407572199       -1.9471068584        1.8683905487
 C         -2.5311877119       -2.0191285119        2.9920187784
 C         -1.1718667512       -2.2506901628        2.8628086085
 C         -0.6087918161       -2.4125016068        1.6058673457
 H          0.4478963256       -2.5860444471        1.4896231291
 H         -0.5403210286       -2.2980981443        3.7349738098
 H         -2.9623085686       -1.8898817244        3.9721828831
 H         -4.3994981999       -1.7683293671        1.9700491383
 H         -3.3725593341       -2.0476165440       -0.2925470585
 H          0.8464422785       -4.0506476870       -1.4415070450
 H          3.2423864343       -3.9200794325       -1.4864734604
 H          5.2465846331       -2.5208454897       -1.1521051315
 H          5.0280438350       -0.1976763301       -0.3783881346
 H          3.4453841721        1.7771226243       -0.3817866423
 C          3.1922964769        1.2809126765        1.6829933507
 C          4.6220972070        1.5585414321        2.0312329976
 C          3.5832884751        2.6203849213        2.2286147942
 H          3.2803618498        2.8757504320        3.2326332449
 H          3.5729002931        3.4568057783        1.5441704581
 H          5.0403973146        1.0797517276        2.9031757956
 H          5.3246192912        1.6946198556        1.2230490779
 H          2.6283685832        0.6281603113        2.3369428818
