  62
        -98.94509845
 C         -2.5588871617       -0.0340015213        0.3785589160
 C         -2.2467875135        0.5876390859       -0.8545384268
 C         -1.9630788266        2.0280178533       -0.7921471548
 C         -2.0294811660        2.6631953336        0.3916204373
 C         -1.7925189748        4.1319883939        0.5943774863
 C         -0.3354690416        4.4410279838        0.9595671816
 C          0.6929478194        3.7952046302        0.0311641025
 H          1.6776295678        4.1484856566        0.3471214089
 H          0.6860128851        2.7126383101        0.1765630509
 C          0.4963965236        4.1032364392       -1.4595204891
 H          1.4722930559        4.3218078514       -1.8979198816
 H         -0.1211007669        4.9947641103       -1.5790758810
 C         -0.1054957942        2.9502590173       -2.2661224485
 H          0.0641656493        3.1498094628       -3.3277986615
 H          0.4166916644        2.0236603259       -2.0126014704
 C         -1.6107058125        2.7187618509       -2.0787251153
 H         -2.1460633501        3.6664807757       -2.1715691746
 H         -1.9501635068        2.0514277304       -2.8764200598
 H         -0.1481675822        4.0833956319        1.9750203551
 H         -0.2054679999        5.5254891271        0.9513748433
 H         -2.0678574999        4.6615230570       -0.3159800160
 H         -2.4379825019        4.4687289193        1.4081666246
 O         -2.3251370903        2.0299750570        1.5575108353
 C         -2.5678473955        0.6663522080        1.5825040214
 O         -2.7908101671        0.2036171766        2.7223765196
 H         -0.2501976983       -0.9453963129        0.6050856845
 C         -0.4070527269       -1.8468706835        0.0306064225
 C         -1.7015700452       -2.3059427327       -0.1741132189
 C         -1.8809273955       -3.4827231849       -0.8899698857
 C         -0.7881459894       -4.1659134357       -1.3963629824
 C          0.4958912593       -3.6878964023       -1.2160878019
 C          0.6854605801       -2.5059373855       -0.5058253454
 N          1.9726810696       -1.9614881691       -0.3677603681
 S          2.2677938714       -0.6309186476        0.6092553570
 O          2.0145479066       -0.9476559771        2.0000798797
 O          1.5715247620        0.5081085520        0.0703007791
 C          4.0204976960       -0.4492378361        0.3421077195
 C          4.9071419591       -1.0647168946        1.2053688942
 C          6.2675392444       -0.9409043421        0.9704876693
 C          6.7158947769       -0.2088301034       -0.1186795011
 C          5.8142581528        0.4057561641       -0.9748650939
 C          4.4528623262        0.2856034754       -0.7452633728
 H          3.7139453386        0.7512163253       -1.3767854069
 H          6.1657255856        0.9773743206       -1.8185952281
 H          7.7748819719       -0.1136129302       -0.2994640250
 H          6.9708912297       -1.4137684745        1.6367813069
 H          4.5129514899       -1.6126593708        2.0461719002
 H          2.7176701054       -2.6421650351       -0.3572931585
 H          1.3445368436       -4.2122194713       -1.6269318592
 H         -0.9409228350       -5.0817855176       -1.9469409412
 H         -2.8759569579       -3.8639510000       -1.0524977985
 C         -2.8481037717       -1.5226845205        0.4204510296
 H         -2.9264798079       -1.7884508623        1.4861839127
 C         -4.1747048825       -1.8128331742       -0.2544436076
 C         -5.0592336179       -2.9153823538        0.2429552599
 C         -5.4416849665       -1.4855207399        0.4752549023
 H         -6.2672441271       -1.0712735842       -0.0835753155
 H         -5.3444361755       -1.0833549511        1.4736105235
 H         -5.6282446865       -3.4842852432       -0.4768989600
 H         -4.7162956679       -3.4888000376        1.0910722206
 H         -4.1454342169       -1.6174055268       -1.3203294408
 O         -2.2239276899       -0.0259450263       -1.9539578667
