  62
        -98.94686325
 C          1.2435601415        1.2159501150        0.0894082195
 C          2.0126883586        0.7077828138        1.1618782774
 C          2.6837331052       -0.5760705394        0.9184182479
 C          2.5028616132       -1.1983450303       -0.2611937351
 C          3.1765005122       -2.4777128167       -0.6633932250
 C          4.5031167776       -2.2014436515       -1.3851822767
 C          5.4146863851       -1.2192473173       -0.6496850948
 H          6.3323136327       -1.1261254266       -1.2345665399
 H          4.9418332975       -0.2346153410       -0.6356122368
 C          5.7649062197       -1.6321685432        0.7867393514
 H          5.5679308997       -2.6958006787        0.9258811006
 H          6.8344279762       -1.4780608240        0.9449995951
 C          5.0360182081       -0.8360603846        1.8708990831
 H          5.5107071418       -1.0552947250        2.8311682177
 H          5.1574992451        0.2339657711        1.6837211959
 C          3.5383953039       -1.1316009842        2.0228267476
 H          3.1963783794       -0.6451946363        2.9413573687
 H          3.3848250253       -2.2075831987        2.1279597347
 H          5.0250938258       -3.1500380767       -1.5234053363
 H          4.2815062080       -1.7880644272       -2.3716381832
 H          3.3539396729       -3.0845183872        0.2223236305
 H          2.5145487170       -3.0200914126       -1.3393887632
 O          1.7191094543       -0.7010246481       -1.2497599121
 C          1.0688045057        0.5148094317       -1.1048635211
 O          0.3822331153        0.8516960740       -2.0851124634
 O          2.1262442403        1.2957785440        2.2726146795
 C          0.5230401609        2.5417936358        0.2602646744
 C         -0.9634287061        2.3132428238        0.1459798434
 C         -1.7933509038        3.0213698385       -0.7116997453
 C         -3.1423294310        2.7173510919       -0.7925283480
 C         -3.6929397002        1.7124392147       -0.0188614967
 C         -2.8724404347        1.0078991772        0.8530565967
 C         -1.5238145607        1.3123319431        0.9314168071
 H         -0.8860650401        0.7562710829        1.6080280493
 N         -3.4210469229       -0.0263871031        1.6447605690
 S         -4.0073122932       -1.3519829531        0.8034520803
 O         -5.1769991430       -0.9523979814        0.0641673756
 O         -4.2001448385       -2.3833170135        1.7978101654
 C         -2.6999818990       -1.8151241509       -0.3166950350
 C         -2.6469417531       -1.2412714907       -1.5708190001
 C         -1.6040107674       -1.5793276797       -2.4175149725
 C         -0.6376289203       -2.4790850873       -1.9969999768
 C         -0.6995073946       -3.0397726085       -0.7306386312
 C         -1.7372622592       -2.7018706057        0.1221841105
 H         -1.8262911823       -3.1224301613        1.1114164559
 H          0.0580768087       -3.7342014882       -0.4030394302
 H          0.1730890530       -2.7339427150       -2.6610998568
 H         -1.5382777697       -1.1291751205       -3.3943424963
 H         -3.4186680970       -0.5488178746       -1.8649061406
 H         -2.7838617271       -0.3499939734        2.3596510429
 H         -4.7363713639        1.4500098296       -0.0851767447
 H         -3.7736622914        3.2702988245       -1.4713972034
 H         -1.3837287185        3.8044726423       -1.3279019755
 H          0.7430837016        2.8665498143        1.2880334470
 C          1.0614250989        3.5759105679       -0.7046462007
 C          0.9746912722        5.0342495746       -0.3703118357
 C          2.2995724888        4.3350760709       -0.3365739695
 H          3.0200918096        4.5538829638       -1.1103382790
 H          2.7440201770        4.1248213828        0.6254964032
 H          0.7875648560        5.7368346181       -1.1682151545
 H          0.5208465064        5.3052973919        0.5708982220
 H          0.9474179424        3.2789719531       -1.7408914340
