  62
        -98.93480511
 C         -1.7556448230        0.7821319696        0.4608705465
 C         -3.0854590392        1.2485664234        0.5995173938
 C         -4.1120715605        0.6027658994       -0.2376559023
 C         -3.7447535266       -0.3603938462       -1.1029532925
 C         -4.5488267285       -1.1657412103       -2.1022368302
 C         -6.0743606020       -1.1684303724       -2.0561245748
 C         -6.6751541246       -1.8641706851       -0.8347804911
 H         -6.4905207243       -2.9378995751       -0.9219928443
 H         -7.7563570089       -1.7109083488       -0.8511495992
 C         -6.1293308706       -1.4123309923        0.5174896895
 H         -5.0637826528       -1.6431816517        0.5780248400
 H         -6.6298439104       -1.9986536935        1.2929082202
 C         -6.3373885301        0.0646644232        0.8461065478
 H         -6.0452228611        0.2149856585        1.8890935653
 H         -7.3961897369        0.3155286327        0.7573566645
 C         -5.5260942913        1.0531198153       -0.0088356757
 H         -5.4611687836        1.9983892738        0.5382257115
 H         -6.0228883066        1.2582560577       -0.9542016330
 H         -6.4116059389       -1.7114164356       -2.9433220936
 H         -6.4556025918       -0.1553744848       -2.1454186947
 H         -4.1868813216       -2.1953780940       -2.0162952791
 H         -4.2326721406       -0.8113181716       -3.0896876574
 O         -2.4419141514       -0.7427004521       -1.2372945927
 C         -1.4197036474       -0.1955698385       -0.4744847323
 O         -0.2964783873       -0.6614730755       -0.7337348671
 O         -3.4038291603        2.1802949265        1.3861325939
 C         -0.6873699418        1.4308647833        1.3215466391
 C          0.5154326848        1.7928950409        0.4859822682
 C          0.3216271397        2.5319329985       -0.6789037717
 C          1.3843621099        2.8656977678       -1.4949821277
 C          2.6734927268        2.4888337626       -1.1588131108
 C          2.8809900011        1.7680769407        0.0075422724
 C          1.8085352073        1.4250057599        0.8231654996
 H          1.9927864728        0.8459154455        1.7146075501
 N          4.1981215602        1.4012121112        0.3598742993
 S          4.9806526893        0.2594028752       -0.5831657619
 O          6.3446424841        0.2254789277       -0.1049658954
 O          4.7967540169        0.5940367782       -1.9714516962
 C          4.1837394214       -1.2893831438       -0.1945389343
 C          2.8865277006       -1.4973563999       -0.6174886658
 C          2.2498382329       -2.6765502256       -0.2643935138
 C          2.9161052008       -3.6235529531        0.4973194430
 C          4.2210751578       -3.4005698880        0.9117275505
 C          4.8609762585       -2.2207566551        0.5691923900
 H          5.8723547887       -2.0027330456        0.8724109878
 H          4.7375975178       -4.1396494389        1.5030039235
 H          2.4140737970       -4.5386206398        0.7703732137
 H          1.2292601273       -2.8236122332       -0.5800182552
 H          2.3718849872       -0.7501605948       -1.1996150596
 H          4.2937864974        1.1399507768        1.3317778634
 H          3.5130312118        2.7256633373       -1.7913626510
 H          1.2108664535        3.4273018410       -2.4008529474
 H         -0.6838636757        2.8288335258       -0.9463240044
 H         -1.1519527754        2.3706675803        1.6651543447
 C         -0.3360940926        0.6383956566        2.5733609147
 C         -1.2624179223       -0.4034930778        3.1233965783
 C          0.0425014728       -0.8109737353        2.5114825064
 H          0.8251198232       -1.1683137137        3.1652006106
 H          0.0329626000       -1.2836248906        1.5421943739
 H         -1.3753366551       -0.4721420651        4.1950788109
 H         -2.1707504440       -0.6086526897        2.5757244834
 H          0.1833787499        1.2466960794        3.3077487865
