  62
        -98.93526309
 C          1.7925983005        0.8946173299        0.7330967700
 C          2.0595909705       -0.4954520301        0.8326984494
 C          3.4557617206       -0.9263777300        0.6501360096
 C          4.3955394606        0.0047745602        0.4134816403
 C          5.8624029407       -0.2087249496        0.1598830305
 C          6.1470014611       -0.3070073189       -1.3483756194
 C          6.0129520713       -1.7101224786       -1.9386584502
 H          6.1126549215       -1.6174019480       -3.0226085301
 H          6.8410382912       -2.3282846887       -1.5855120703
 C          4.6976581012       -2.4279777988       -1.6252268009
 H          3.8638682412       -1.7316455588       -1.7330466707
 H          4.5598777814       -3.2140798584       -2.3701821313
 C          4.6732875909       -3.0596492795       -0.2252925312
 H          4.3786851909       -4.1079658095       -0.3068088818
 H          5.6822750008       -3.0539198396        0.1864533791
 C          3.7049085606       -2.4052766400        0.7701382989
 H          4.0429454703       -2.6197873805        1.7895539189
 H          2.7150539006       -2.8609820700        0.6685516584
 H          5.4660054612        0.3759658114       -1.8628326193
 H          7.1639636911        0.0433247313       -1.5365151790
 H          6.2217592706       -1.0876178799        0.6867153502
 H          6.3755951005        0.6713262002        0.5532532311
 O          4.0993191106        1.3285176202        0.3212450508
 C          2.8086424205        1.8107078201        0.4617587107
 O          2.7272923305        3.0475956102        0.3231625113
 O          1.1604431905       -1.3467510502        1.0693457887
 C          0.3499812304        1.3182522498        0.9383423499
 C         -0.3930283393        1.5050151304       -0.3631149303
 C          0.0542402810        2.3832743009       -1.3440818497
 C         -0.6738064387        2.5585686415       -2.5066670898
 C         -1.8689501887        1.8879500215       -2.7008369504
 C         -2.3272972489        1.0128098710       -1.7237795010
 C         -1.5773702792        0.8144358105       -0.5732560609
 H         -1.9275094993        0.1165085901        0.1714653887
 N         -3.5337984788        0.3171332511       -1.8822065917
 S         -4.5515115592        0.1110558304       -0.5669943320
 O         -5.8610726090       -0.0838658594       -1.1513769825
 O         -4.4284091294        1.1989917499        0.3741275485
 C         -4.0193559693       -1.4161874400        0.1753966974
 C         -3.9768479590       -2.5479531196       -0.6143602932
 C         -3.5785092492       -3.7462520899       -0.0447542737
 C         -3.2331079395       -3.7929296205        1.2974924464
 C         -3.2857818397       -2.6490086609        2.0784159369
 C         -3.6839871196       -1.4475767206        1.5141972874
 H         -3.7357093398       -0.5336395909        2.0856498679
 H         -3.0146340700       -2.6865469714        3.1214119070
 H         -2.9196562196       -4.7257385707        1.7390391460
 H         -3.5360618990       -4.6391996896       -0.6474209841
 H         -4.2566560988       -2.4724179191       -1.6518752932
 H         -4.0471899286        0.5412271614       -2.7221586617
 H         -2.4437156884        2.0412480019       -3.6017374405
 H         -0.3147028086        3.2384315118       -3.2647616994
 H          0.9729797209        2.9266245309       -1.1847436892
 H         -0.1225316297        0.4767085095        1.4632890693
 C          0.1878534201        2.5628679194        1.7922280004
 C         -1.1672300000        2.8845778790        2.3457177702
 C         -0.0738958202        2.4210768786        3.2600506203
 H          0.3721378196        3.1368436183        3.9342851808
 H         -0.1349650703        1.4206244484        3.6630252298
 H         -1.4690705501        3.9200303390        2.3902853407
 H         -1.9789867299        2.2083967291        2.1193661397
 H          0.8077065102        3.3889783495        1.4692268810
