  62
        -98.93864291
 C         -2.8100285791       -0.0659228007        0.1056595780
 C         -2.1372964615       -0.8158502169        1.1012314930
 C         -1.8493807832       -2.2189923868        0.7653982677
 C         -2.2270750567       -2.7105759258       -0.4269609920
 C         -1.9733212888       -4.1118838160       -0.9007914697
 C         -0.6652693763       -4.2203228811       -1.6955539184
 C          0.5451616175       -3.5883964213       -1.0073303271
 H          1.4146707251       -3.7945865498       -1.6366161421
 H          0.4273387088       -2.5019144160       -0.9856895114
 C          0.8144913536       -4.0992180006        0.4150061295
 H          0.3174566324       -5.0583492186        0.5670046532
 H          1.8879604391       -4.2693760239        0.5231807949
 C          0.4003587568       -3.1277187554        1.5224022388
 H          0.7676099159       -2.1270659628        1.2776396552
 H          0.8799931064       -3.4425358246        2.4532636771
 C         -1.1071854774       -3.0291640738        1.7905318360
 H         -1.2459748321       -2.5081927615        2.7424221003
 H         -1.5344224459       -4.0299272888        1.8802101429
 H         -0.8025543612       -3.7249423114       -2.6597218076
 H         -0.4672099895       -5.2780461114       -1.8821338775
 H         -1.9424290307       -4.7774696751       -0.0400491346
 H         -2.8022890099       -4.4074317124       -1.5467382605
 O         -2.8800321927       -1.9654089557       -1.3558355035
 C         -3.1550935636       -0.6295838404       -1.1259567209
 O         -3.7245285840       -0.0546367470       -2.0764683554
 O         -1.7853731994       -0.3590118163        2.2210315303
 C         -3.1265367414        1.4170982486        0.2487607379
 C         -1.9271359188        2.2023825152       -0.2172212583
 C         -2.0139069102        3.1530249496       -1.2263502408
 C         -0.8743551194        3.7753954431       -1.7095141768
 C          0.3749133139        3.4487526482       -1.2111561409
 C          0.4658357249        2.5108197280       -0.1931490943
 C         -0.6757669462        1.9112686884        0.3085166119
 H         -0.5902259078        1.1776246263        1.0965773543
 N          1.7484657620        2.0947621487        0.2689384635
 S          2.3066922516        0.8792843866       -0.7806739626
 O          2.5587188971        1.4946652656       -2.0596980242
 O          1.3903986259       -0.2401948669       -0.7806607846
 C          3.8496244225        0.4171162514       -0.0168642220
 C          4.8874147233        1.3293441524       -0.0361784793
 C          6.0837623378        0.9934789061        0.5765295999
 C          6.2211364899       -0.2411238744        1.1942432734
 C          5.1705750307       -1.1457919703        1.2039310308
 C          3.9700518368       -0.8154533137        0.5942383725
 H          3.1274090487       -1.4885384791        0.5738918433
 H          5.2793859369       -2.1054725881        1.6829440271
 H          7.1535773157       -0.5007619680        1.6700891442
 H          6.9036329651        1.6933670900        0.5705754101
 H          4.7361529064        2.2724063481       -0.5340611138
 H          1.6620848640        1.6680127687        1.1850997834
 H          1.2743172477        3.8859068743       -1.6125730383
 H         -0.9586086517        4.5054610106       -2.5002283146
 H         -2.9790693089        3.3802910203       -1.6555980785
 H         -3.9473362306        1.6095683671       -0.4597726313
 C         -3.6160225934        1.8032031653        1.6370987451
 C         -2.8569026726        2.7062161467        2.5583961143
 C         -4.1000842731        3.2012096590        1.8869841967
 H         -4.9913685070        3.3428990183        2.4789040725
 H         -3.9826774817        3.9145998796        1.0849966123
 H         -2.8876320880        2.4814747145        3.6135502987
 H         -1.9088829074        3.0983808096        2.2249238343
 H         -4.1780545826        1.0027428008        2.1061434071
