  62
        -98.94272308
 C         -1.2739440794       -1.6247726806        0.2125356304
 C         -1.6406627995       -0.6245179109        1.1425066207
 C         -2.8747061099        0.1243066487        0.8564592910
 C         -3.5714585500       -0.1599943014       -0.2573987289
 C         -4.8855441103        0.4147997182       -0.7268681485
 C         -5.1148730708        1.9204728281       -0.5543720282
 C         -3.8677248911        2.7922578586       -0.7608478283
 H         -3.0559630910        2.2005910990       -1.1892484486
 H         -4.1006433915        3.5853581486       -1.4741564481
 C         -3.3752892311        3.4490444586        0.5301819117
 H         -2.7439717515        4.3017416788        0.2683727317
 H         -4.2352096911        3.8305753682        1.0861068819
 C         -2.5458772106        2.5422238587        1.4370958714
 H         -2.3101407906        3.1004567686        2.3469496014
 H         -1.5957867206        2.3179067191        0.9427022612
 C         -3.2159465801        1.2141854384        1.8313867013
 H         -2.8010200098        0.8989741284        2.7928229412
 H         -4.2909758301        1.3355077180        1.9426310915
 H         -5.8814752610        2.2053810380       -1.2772561380
 H         -5.5272698307        2.1176621378        0.4340791119
 H         -4.9435495704        0.1571782384       -1.7874224986
 H         -5.6894588000       -0.1281177421       -0.2202726085
 O         -3.1632084298       -1.1110863911       -1.1457136391
 C         -1.9999445195       -1.8407370307       -0.9567449695
 O         -1.7368467494       -2.6335365105       -1.8813493096
 H          0.4461019899        0.0421665701       -0.4953537596
 C          1.1462174301       -0.6629549596       -0.9140236999
 C          1.0506461606       -2.0051469497       -0.5749117901
 C          1.9437193708       -2.8972270993       -1.1550670504
 C          2.8933599805       -2.4464725888       -2.0564105605
 C          2.9938366400       -1.1047159187       -2.3778534803
 C          2.1078811497       -0.2037132591       -1.7980750700
 N          2.1637733692        1.1687183710       -2.0821909698
 S          1.8218516990        2.2701770706       -0.8684773595
 O          0.4040017191        2.3212019001       -0.6181935492
 O          2.4224175685        3.5032966609       -1.3328246294
 C          2.7173490695        1.6679088407        0.5522510902
 C          2.0667821099        1.0887291303        1.6218197303
 C          2.8237867003        0.5888206704        2.6710181000
 C          4.2059671503        0.6758218009        2.6357341298
 C          4.8446812899        1.2696086013        1.5570883898
 C          4.0954644195        1.7673651912        0.5048237200
 H          4.5525426992        2.2468326015       -0.3455724200
 H          5.9200034198        1.3421240817        1.5329392596
 H          4.7873216906        0.2812222910        3.4540901096
 H          2.3176349006        0.1295868801        3.5052695500
 H          0.9898849900        1.0213714999        1.6356731404
 H          2.9469790290        1.4589383713       -2.6483813599
 H          3.7399615897       -0.7570644383       -3.0756460604
 H          3.5738034807       -3.1513362685       -2.5093707707
 H          1.8913462712       -3.9449361593       -0.9084949406
 C          0.0076459310       -2.4033479502        0.4421299901
 H          0.3714674610       -2.0750168503        1.4284803800
 C         -0.2542932585       -3.8932511703        0.4927556799
 C          0.5963514320       -4.7803948402        1.3507181995
 C         -0.8171982481       -4.4848858507        1.7494665199
 H         -1.5554303778       -5.2680273310        1.6646513199
 H         -0.9866779881       -3.8151074009        2.5800320900
 H          0.8288167423       -5.7725686300        0.9943078893
 H          1.3885265519       -4.3169545700        1.9189871395
 H         -0.6183122185       -4.2844121803       -0.4502161401
 O         -0.9675240394       -0.3735329509        2.1791360106
