  62
        -98.94436570
 C          1.6106932331        1.3813308620        0.5368352782
 C          1.6120291251        0.0743458738        1.0883106204
 C          2.7464891892       -0.7787751745        0.7203939889
 C          3.7094923309       -0.2958583333       -0.0855362421
 C          4.9488105193       -1.0287925112       -0.5229302061
 C          4.7421029492       -1.9315810083       -1.7467198769
 C          3.9370480928       -3.2047623316       -1.4846726155
 H          4.0500724872       -3.8416251433       -2.3642381781
 H          4.3702469653       -3.7386342306       -0.6383457674
 C          2.4411008552       -2.9660206740       -1.2353904220
 H          2.1674715355       -1.9676027739       -1.5850287616
 H          1.8565886850       -3.6789846950       -1.8207143292
 C          2.0079210834       -3.1159936943        0.2228428738
 H          2.1512927248       -4.1505373063        0.5413048657
 H          0.9421380235       -2.8845119159        0.2862755237
 C          2.7480076585       -2.1973128308        1.2036775221
 H          2.2217029203       -2.2227412596        2.1606514633
 H          3.7689099341       -2.5475059879        1.3544902353
 H          5.7313454843       -2.2195993617       -2.1101077147
 H          4.2566033747       -1.3481996402       -2.5325912071
 H          5.3358981929       -1.6210060492        0.3066590627
 H          5.6864762353       -0.2653539786       -0.7795420728
 O          3.6717156198        0.9629553264       -0.5951506723
 C          2.6087277528        1.8179941768       -0.3344788373
 O          2.6911137794        2.9127304010       -0.9230248002
 O          0.7113741908       -0.3548439401        1.8568207819
 C          0.4279296416        2.2792816794        0.8625253807
 C         -0.5012371410        2.2730190726       -0.3265534574
 C         -0.4987212274        3.2658343952       -1.2984252450
 C         -1.3434026587        3.1720336048       -2.3904698533
 C         -2.2161700731        2.1070324988       -2.5226053815
 C         -2.2253239043        1.1077612475       -1.5555044700
 C         -1.3617130519        1.1918015082       -0.4752547715
 H         -1.3561529765        0.4066430707        0.2663234120
 N         -3.0921123064        0.0089498632       -1.6573364889
 S         -3.8923717354       -0.5340622904       -0.2868534961
 O         -5.0866798546       -1.1725683809       -0.8011353935
 O         -4.1046367262        0.5380408579        0.6573740245
 C         -2.8381196528       -1.7878638874        0.4054685759
 C         -2.5083665092       -2.8693350394       -0.3879812641
 C         -1.7292813783       -3.8794008617        0.1505945720
 C         -1.2957907764       -3.7913861701        1.4658035625
 C         -1.6339673927       -2.6988666042        2.2478191015
 C         -2.4154149976       -1.6864389945        1.7148488207
 H         -2.6959386553       -0.8179577358        2.2896280404
 H         -1.2856843962       -2.6229655240        3.2649486471
 H         -0.6866065438       -4.5777502159        1.8830982131
 H         -1.4582544941       -4.7300690436       -0.4540554959
 H         -2.8698759337       -2.9030199015       -1.4023447882
 H         -3.7094595692        0.0326226362       -2.4562111699
 H         -2.8844177973        2.0451678360       -3.3684422569
 H         -1.3297335168        3.9453802481       -3.1438213338
 H          0.1797700990        4.0981415699       -1.2085307594
 H         -0.0941410279        1.7795606259        1.6905286327
 C          0.8339520532        3.6646009013        1.3154130206
 C         -0.1883631930        4.5377352885        1.9776905479
 C          0.9331856606        3.9542045252        2.7819287558
 H          1.7184999093        4.6112472594        3.1244727522
 H          0.7052893543        3.1517173297        3.4682701328
 H         -0.1761944481        5.5966841515        1.7698515887
 H         -1.1785479119        4.1281308416        2.1132806758
 H          1.5623409947        4.1369867306        0.6688738914
