  62
        -98.94479457
 C          1.8601646512        0.7490384790        0.4153258487
 C          2.4592711254        0.1464880688       -0.7175225107
 C          3.5160652009       -0.8326118274       -0.4308803498
 C          3.8204236830       -1.1377644942        0.8435349100
 C          4.8545194260       -2.1338023899        1.2937674602
 C          6.2819486960       -1.5720144172        1.3449013894
 C          6.9381914422       -1.3375548407       -0.0162741621
 H          7.9988296375       -1.1546428060        0.1672078303
 H          6.8637561702       -2.2457286922       -0.6153104585
 C          6.3613962758       -0.1513770536       -0.8016526815
 H          5.7943245931        0.4922144479       -0.1252130927
 H          7.1790830189        0.4500580193       -1.2050573212
 C          5.4658640644       -0.5443285729       -1.9767122056
 H          6.0560572445       -1.0775173943       -2.7253228936
 H          5.0840451571        0.3700472052       -2.4377600910
 C          4.2642652831       -1.4169034668       -1.5906651437
 H          3.5789770584       -1.4550189590       -2.4412022324
 H          4.5931657709       -2.4304777226       -1.3615993124
 H          6.2692141137       -0.6367782341        1.9093474680
 H          6.8930812899       -2.2870113961        1.9005805316
 H          4.5701221548       -2.4431681948        2.3019913374
 H          4.8291771378       -3.0082433920        0.6427196198
 O          3.1827737361       -0.5734980183        1.9043599397
 C          2.2030323014        0.3893473206        1.7178469421
 O          1.7087303763        0.8312668624        2.7759827050
 H         -0.4077606636       -0.5133224163        0.7751424874
 C         -0.8874604396       -0.0259154748       -0.0652361472
 C         -0.3989646443        1.1994585277       -0.5030152830
 C         -1.0348604614        1.8218565030       -1.5686224236
 C         -2.1068561096        1.2120748580       -2.1986194778
 C         -2.5737291620       -0.0184576383       -1.7764944903
 C         -1.9589068112       -0.6389353148       -0.6955244029
 N         -2.4358894751       -1.8800068362       -0.2433887911
 S         -4.0898315071       -2.1004947717       -0.1300434752
 O         -4.2686365299       -3.0879022347        0.9115646086
 O         -4.6231243129       -2.4499904600       -1.4232881187
 C         -4.7463541106       -0.5223785305        0.3830726748
 C         -5.6769403810        0.1241878454       -0.4044959480
 C         -6.1560213063        1.3596858669        0.0009183952
 C         -5.6954049211        1.9257701393        1.1792261936
 C         -4.7627590398        1.2619228675        1.9617675978
 C         -4.2822557830        0.0254778437        1.5626243959
 H         -3.5592207458       -0.5156973469        2.1522084828
 H         -4.4043538352        1.7029099304        2.8781679370
 H         -6.0643432094        2.8897890268        1.4918823258
 H         -6.8825899621        1.8771825983       -0.6043481458
 H         -6.0043857224       -0.3510115861       -1.3148224735
 H         -1.9569718863       -2.2362139814        0.5699600141
 H         -3.3929664080       -0.5147861185       -2.2708237740
 H         -2.5829071161        1.7008826753       -3.0346583533
 H         -0.6847707502        2.7799792046       -1.9150239127
 C          0.7773168971        1.7970479466        0.2314847479
 H          0.4420605614        2.0672553887        1.2436507868
 C          1.3499204807        3.0290898871       -0.4374527454
 C          0.7646215120        4.3802996571       -0.1609525101
 C          2.1068365358        4.0166063520        0.3972297655
 H          2.9865618458        4.4806549732       -0.0229649796
 H          2.1853985033        3.8136009527        1.4557600773
 H          0.7245402794        5.0995664580       -0.9649291257
 H         -0.0689340802        4.4341676135        0.5226714674
 H          1.7258233746        2.8248534029       -1.4332466464
 O          2.1304206530        0.4067940005       -1.9031791536
