  62
        -98.94129650
 C         -1.0043953696       -1.6099025508        0.4944796593
 C         -1.9697682798       -1.3852186904       -0.5154161504
 C         -3.1084662401       -0.5332125711       -0.1396552996
 C         -3.1699528601       -0.0256087221        1.1046134708
 C         -4.2113162303        0.9347904572        1.6046903417
 C         -3.8861846909        2.3596247977        1.1112215728
 C         -4.9040272913        2.9355338081        0.1251373734
 H         -5.7895620013        3.2561632373        0.6783988637
 H         -4.4542257716        3.8246494386       -0.3221462260
 C         -5.3670768011        1.9949019087       -0.9916143773
 H         -5.8672978714        2.6137560191       -1.7395738568
 H         -6.1194338908        1.3068941082       -0.6029350977
 C         -4.2661372809        1.1802051997       -1.6829133481
 H         -4.4890976610        1.1430346904       -2.7512752881
 H         -3.2987456511        1.6739798099       -1.5777894678
 C         -4.1474909403       -0.2760974007       -1.1948362292
 H         -5.1225867801       -0.6274637413       -0.8466473894
 H         -3.8506853002       -0.9051033799       -2.0393308897
 H         -2.8932807110        2.3487438684        0.6532266226
 H         -3.8220711410        3.0348354370        1.9663639433
 H         -5.1959937303        0.6248911971        1.2620464416
 H         -4.1913298702        0.8988049163        2.6942538417
 O         -2.2250021899       -0.2691281025        2.0495023705
 C         -1.1077206596       -1.0352797419        1.7597468498
 O         -0.2904580795       -1.1307274623        2.6990851996
 H          0.4898600996        0.2117716602       -0.2136462595
 C          1.0712836097       -0.3448475790       -0.9317766900
 C          1.0394082702       -1.7315710790       -0.9099923411
 C          1.7720558503       -2.4229916780       -1.8670798717
 C          2.5002487600       -1.7333207171       -2.8214295213
 C          2.5352047995       -0.3502455770       -2.8319865002
 C          1.8095026494        0.3496785020       -1.8753739896
 N          1.8074022789        1.7525663919       -1.8347629485
 S          1.7593335488        2.5214654108       -0.3499621579
 O          0.4315489289        2.4614225999        0.2093014622
 O          2.2647634983        3.8505707612       -0.6224228970
 C          2.9328787793        1.6260800604        0.6523034512
 C          4.2662390492        1.7392838612        0.3052464411
 C          5.2108648595        1.0161040310        1.0133389104
 C          4.8083637100        0.1879268600        2.0507388599
 C          3.4689205801        0.0904859893        2.3914715100
 C          2.5185794697        0.8154756095        1.6884613407
 H          1.4709408098        0.7455526489        1.9376292708
 H          3.1436642104       -0.5507690415        3.1954076895
 H          5.5411611103       -0.3831544701        2.5985895793
 H          6.2540508695        1.0955300515        0.7535368703
 H          4.5397440188        2.4008249919       -0.5006629584
 H          2.4448226586        2.2018309227       -2.4753300683
 H          3.1063941292        0.1834993437       -3.5757220799
 H          3.0563916701       -2.2821899463       -3.5659696418
 H          1.7653927707       -3.5006762780       -1.8706889725
 C          0.2447630806       -2.4111795002        0.1809092285
 H          0.8550387508       -2.3917418007        1.0969282584
 C         -0.1051259689       -3.8498436900       -0.1399417625
 C          0.8329442015       -4.9581598100        0.2304535365
 C         -0.4472607384       -4.7760285010        0.9871752168
 H         -1.2421337282       -5.4922644212        0.8434618164
 H         -0.3992177184       -4.3738363318        1.9890253171
 H          1.7537171515       -4.6908730600        0.7265904865
 H          0.9162467017       -5.8059991995       -0.4326968142
 H         -0.6768268790       -3.9429886695       -1.0557850025
 O         -1.8832291098       -1.8651414295       -1.6762948808
