  62
        -98.94143392
 C         -1.5753096601       -1.4900621895       -0.4224840261
 C         -0.8380115812       -1.9488795616        0.6959595308
 C          0.5148286079       -2.4903713071        0.4274465036
 C          0.9409137926       -2.5951336868       -0.8437206610
 C          2.2742006006       -3.0642752391       -1.3650388245
 C          3.3876171433       -2.0252051898       -1.1782369383
 C          3.4831583934       -1.4379609530        0.2267222390
 H          4.2908115503       -0.7003383521        0.2242721645
 H          2.5656945842       -0.8975751957        0.4660982497
 C          3.7733108537       -2.4472516994        1.3360072673
 H          3.9712144725       -1.8703678967        2.2431699776
 H          4.6797438433       -3.0053037343        1.0906953937
 C          2.6492491612       -3.4402192895        1.6515131036
 H          2.8475597403       -3.8488971664        2.6465226475
 H          2.6541289285       -4.2843347506        0.9659417700
 C          1.2569231110       -2.8197184753        1.6987969064
 H          0.5909486877       -3.4850570504        2.2612135607
 H          1.2920822323       -1.8886864162        2.2788379096
 H          3.2113117594       -1.2006447305       -1.8735188225
 H          4.3378745767       -2.4938750954       -1.4411147447
 H          2.1418063005       -3.2426765049       -2.4346604560
 H          2.5521546789       -4.0071040214       -0.9038560401
 O          0.1524838835       -2.2330613232       -1.8982176524
 C         -1.0796296552       -1.6385006211       -1.7204843488
 O         -1.6402036287       -1.2963187445       -2.7815398709
 O         -1.2533224758       -1.9098082598        1.8841599851
 C         -2.8892620419       -0.7303894060       -0.3274493758
 C         -2.6001788129        0.7488013951       -0.1942236857
 C         -3.2601591181        1.6832277129       -0.9834206822
 C         -2.9498433686        3.0281844688       -0.8893766088
 C         -1.9517264477        3.4618632495       -0.0352474056
 C         -1.2847034753        2.5356554852        0.7583177975
 C         -1.6360921388        1.1950387239        0.6984272657
 H         -1.1259322739        0.4952546839        1.3413450502
 N         -0.2400554606        2.9325962485        1.6134193728
 S          1.2231930295        2.1193841729        1.5335065289
 O          1.0894531363        0.7857062573        2.0542349690
 O          2.1507558635        2.9867859066        2.2270602163
 C          1.6299199305        2.0755361410       -0.2022083976
 C          1.1115352657        1.0683850356       -0.9903073225
 C          1.3820865844        1.0699675441       -2.3494053966
 C          2.1701455738        2.0721432150       -2.8939630248
 C          2.6897720525        3.0746626081       -2.0883950413
 C          2.4132731632        3.0828530720       -0.7309009882
 H          2.8002189479        3.8390869239       -0.0672391534
 H          3.3056059805        3.8495385731       -2.5156222976
 H          2.3796934632        2.0676832409       -3.9519978756
 H          0.9648631462        0.2897324566       -2.9681166960
 H          0.5065610046        0.2967295264       -0.5406990355
 H         -0.0746353246        3.9293858896        1.6233300724
 H         -1.6867127586        4.5068951769        0.0164603023
 H         -3.4726306067        3.7438622297       -1.5050448225
 H         -4.0083252882        1.3475078479       -1.6856576869
 H         -3.3969591262       -0.8831763388       -1.2902498948
 C         -3.8162856003       -1.1924854195        0.7780806854
 C         -5.2905713430       -0.9681241411        0.6333506111
 C         -4.7293820745       -2.3542293025        0.5336670727
 H         -4.9049586502       -3.0472466420        1.3424701326
 H         -4.6927151568       -2.8212050886       -0.4400427787
 H         -5.8579867650       -0.7051248272        1.5127522125
 H         -5.6422894780       -0.5002167512       -0.2735303928
 H         -3.3856253737       -1.0989353107        1.7661823845
