  62
        -98.93733139
 C         -1.6084073697       -0.5767295194        0.1733589517
 C         -2.7514308996       -0.5923718177        1.0165786818
 C         -3.8761644096        0.2692560916        0.6270686001
 C         -3.7631828097        1.0280765994       -0.4776249513
 C         -4.8418256796        1.8990876184       -1.0557623630
 C         -5.8719099397        1.0323164969       -1.8078348812
 C         -7.2664074197        1.0249588382       -1.1814148211
 H         -7.8361254197        0.2260651873       -1.6608708596
 H         -7.7643323797        1.9689249478       -1.4129976230
 C         -7.3156487196        0.8303781912        0.3372356692
 H         -8.3485705696        0.5840098917        0.5923210698
 H         -7.0895903996        1.7741679721        0.8358613774
 C         -6.3952176196       -0.2576790478        0.9054349013
 H         -6.1626724997       -1.0012900493        0.1428500627
 H         -6.9339271696       -0.7762869862        1.7010905923
 C         -5.0849330496        0.2681088834        1.5212137102
 H         -4.8103500396       -0.3761297350        2.3616866214
 H         -5.2459902595        1.2741157542        1.9187944483
 H         -5.4886490598        0.0109904368       -1.8576652993
 H         -5.9615972298        1.3842105649       -2.8366991719
 H         -5.3237242296        2.4640516199       -0.2608545040
 H         -4.3624238997        2.5992790670       -1.7403269344
 O         -2.6510155997        1.0292600979       -1.2533413714
 C         -1.5506564397        0.2362329084       -0.9581505599
 O         -0.6170854198        0.3704545668       -1.7753991502
 H          0.8895343003        0.7026075297       -0.2364675310
 C          1.2489041404        0.3339314316        0.7126208897
 C          0.6493562604       -0.7794973873        1.2830722719
 C          1.1393583104       -1.2442144450        2.4979100428
 C          2.2034304805       -0.6135196038        3.1199459815
 C          2.7982965605        0.4966537551        2.5467014393
 C          2.3071351304        0.9736531727        1.3395960284
 N          2.9211659305        2.0962864015        0.7318475962
 S          4.4372379104        1.7611127702        0.0948279068
 O          5.3534405205        1.5314182623        1.1827629572
 O          4.7531426204        2.8623155385       -0.7862885654
 C          4.1966940603        0.2591786084       -0.8352388103
 C          4.4126069903       -0.9579364604       -0.2213453979
 C          4.1303196402       -2.1186063217       -0.9226665657
 C          3.6340238401       -2.0414893842       -2.2147592358
 C          3.4196069101       -0.8110238754       -2.8160564582
 C          3.6980466002        0.3529056859       -2.1188537304
 H          3.5441457402        1.3286106451       -2.5519869123
 H          3.0265454001       -0.7536316273       -3.8185197682
 H          3.4113268201       -2.9453523253       -2.7602065740
 H          4.2921785402       -3.0770163108       -0.4563603538
 H          4.7981955303       -0.9732920884        0.7847851221
 H          2.3485518604        2.4895262801       -0.0032754545
 H          3.6387843005        0.9921962559        3.0048662683
 H          2.5736342105       -0.9893064520        4.0614890122
 H          0.6761463104       -2.1035803041        2.9596155745
 C         -0.4680071297       -1.4995335487        0.5674845334
 H         -0.9129334397       -2.2125422273        1.2743614548
 C          0.1061049002       -2.2779453510       -0.6023965751
 C          0.7264491102       -3.6177319405       -0.3509384525
 C         -0.5884173299       -3.5223803218       -1.0636040127
 H         -0.6225885399       -3.7294246339       -2.1224708223
 H         -1.4809485899       -3.8211869908       -0.5329593720
 H          0.7252523602       -3.9878523085        0.6627839682
 H          1.5995156101       -3.8933130416       -0.9202738821
 H          0.5547882802       -1.6455805824       -1.3578431764
 O         -2.8268364696       -1.3070201657        2.0517815832
