  62
        -98.93338374
 C         -1.4924036016       -1.3559856098        0.0705118801
 C         -2.2329873012       -0.5388984202        0.9646546308
 C         -3.1282940912        0.4559799304        0.3604631516
 C         -3.1888102514        0.5650255312       -0.9782448184
 C         -4.0134976014        1.5474106819       -1.7670847576
 C         -5.5424442914        1.3875450322       -1.6593086073
 C         -6.1962561709        2.2669603517       -0.5861470567
 H         -5.5547012307        3.1290141014       -0.3995983963
 H         -7.1376240509        2.6568041521       -0.9787958962
 C         -6.5201359708        1.5736675109        0.7408593530
 H         -6.7399898105        2.3494316605        1.4774789435
 H         -7.4243795910        0.9731131212        0.6176068628
 C         -5.4334753509        0.6543225903        1.2993050022
 H         -5.4201132112       -0.2819479193        0.7359808916
 H         -5.7032080107        0.3922017398        2.3242562721
 C         -4.0117229308        1.2489806000        1.2789917622
 H         -4.0377657606        2.2957019802        0.9801848929
 H         -3.5668790406        1.1827872993        2.2736457021
 H         -5.9585090615        1.6675939128       -2.6284627071
 H         -5.7878872416        0.3385634721       -1.4947248979
 H         -3.7345077811        2.5609642016       -1.4704104370
 H         -3.7137188716        1.4100369824       -2.8081269077
 O         -2.4424770918       -0.2173085085       -1.8027469490
 C         -1.5911519219       -1.2008474890       -1.3123771298
 O         -0.9980168822       -1.8304799086       -2.2090731903
 O         -2.1501153810       -0.6411647510        2.2167692907
 C         -0.6012625017       -2.4136518404        0.7002900093
 C          0.8188968184       -1.9259797408        0.8280745492
 C          1.4750553187       -1.9379570617        2.0529832791
 C          2.7753210588       -1.4743672521        2.1615358591
 C          3.4451749587       -0.9875838216        1.0536657092
 C          2.7936462484       -0.9638002307       -0.1732561106
 C          1.4915048983       -1.4289442703       -0.2802989906
 H          0.9910461881       -1.4092794296       -1.2372956005
 N          3.4557591883       -0.4481052501       -1.3025045004
 S          4.2070594787        1.0361324096       -1.1181746497
 O          4.1726105185        1.6537837204       -2.4249400193
 O          5.5185227387        0.8415587889       -0.5515050801
 C          3.1868714791        1.9400564791        0.0348001311
 C          3.7271682895        2.3941884183        1.2204825212
 C          2.9105423398        3.0669545979        2.1153165918
 C          1.5728296598        3.2671987684        1.8129988822
 C          1.0449629194        2.8066755393        0.6163422121
 C          1.8575914291        2.1371745596       -0.2836000285
 H          1.4725829388        1.7694527303       -1.2221605387
 H          0.0024099994        2.9573276296        0.3844846924
 H          0.9339347501        3.7831524281        2.5120786727
 H          3.3173553501        3.4274114473        3.0462369020
 H          4.7706213595        2.2100009079        1.4178960109
 H          2.8929914581       -0.4697542695       -2.1408047503
 H          4.4585709488       -0.6254234518        1.1167851992
 H          3.2725235190       -1.4907508028        3.1190239290
 H          0.9542110988       -2.3015135521        2.9263538690
 H         -0.9991445315       -2.5346081409        1.7199994193
 C         -0.7090666822       -3.7679878900        0.0116464085
 C          0.3962986975       -4.3975434197       -0.7766873522
 C          0.0301165177       -4.9499971005        0.5661051576
 H         -0.4760437426       -5.9019372804        0.6175830271
 H          0.7145453379       -4.7669557811        1.3808132875
 H          0.1234207272       -4.9514220791       -1.6621879925
 H          1.3299543776       -3.8661278999       -0.8717104921
 H         -1.7152889423       -3.9532733795       -0.3517840714
