  62
        -98.94175806
 C         -1.2784785155       -1.6918600464        0.0128145657
 C         -2.2068644041       -1.2020483695        0.9579292843
 C         -3.0369280893       -0.0617717922        0.5348477597
 C         -2.8636169375        0.4623009604       -0.6934659717
 C         -3.6035925443        1.5757326883       -1.4045758489
 C         -4.4353359034        2.5890935861       -0.6212772408
 C         -3.6403087893        3.4810324694        0.3311529782
 H         -3.0131597143        4.1541593206       -0.2586590224
 H         -4.3489492608        4.0970039269        0.8892976381
 C         -2.7360495818        2.7492364421        1.3202145545
 H         -1.9454190330        2.2245836424        0.7791394791
 H         -2.2508990878        3.5008442112        1.9493508876
 C         -3.4473676865        1.7600555641        2.2426734137
 H         -4.2744510481        2.2594841838        2.7508980415
 H         -2.7290149694        1.4472460703        3.0057331537
 C         -3.9834215062        0.4862505562        1.5632265533
 H         -4.9674612924        0.6509924906        1.1309062796
 H         -4.0881366018       -0.2866029857        2.3303575563
 H         -5.2364370409        2.0882076814       -0.0856883230
 H         -4.9098242146        3.2387775531       -1.3618064816
 H         -2.8465481051        2.1084116978       -1.9863222793
 H         -4.2607477413        1.0820301172       -2.1291234566
 O         -1.9412802443       -0.0361284448       -1.5660559426
 C         -1.1181933001       -1.1010626073       -1.2399145661
 O         -0.3089751036       -1.4174385012       -2.1292642751
 O         -2.3388804342       -1.6950134983        2.1120887359
 C         -0.3696648584       -2.8461918569        0.3950011278
 C          1.0622689333       -2.3714465424        0.3759372039
 C          2.0883245788       -3.0315739289       -0.2854520029
 C          3.3704097014       -2.5069370564       -0.2925029722
 C          3.6585786603       -1.3225028377        0.3599467167
 C          2.6402528776       -0.6604350515        1.0345695154
 C          1.3599760804       -1.1881934117        1.0423980518
 H          0.5685385805       -0.6671260140        1.5675928410
 N          2.9172622289        0.5558914777        1.6982066249
 S          3.3802113947        1.8375069143        0.7226631043
 O          4.6687376349        1.5420905067        0.1507584610
 O          3.3076453942        3.0080585341        1.5674326656
 C          2.1475799930        1.9326116187       -0.5620663566
 C          2.2799192489        1.1392973585       -1.6841442807
 C          1.3002958770        1.1936944369       -2.6620036842
 C          0.2136771089        2.0391063413       -2.5033810824
 C          0.0940059332        2.8277192193       -1.3696665173
 C          1.0648554154        2.7699842637       -0.3832995002
 H          1.0103955505        3.3701730404        0.5111986738
 H         -0.7517126660        3.4861619528       -1.2482558874
 H         -0.5451721428        2.0739002039       -3.2693588088
 H          1.3781802544        0.5665017807       -3.5346822215
 H          3.1417329629        0.4990634827       -1.7781067927
 H          2.1581364213        0.8578987285        2.2933975547
 H          4.6460100495       -0.8903013320        0.3448298548
 H          4.1565397205       -3.0276405947       -0.8179723717
 H          1.8842565312       -3.9524951859       -0.8061095952
 H         -0.6343879258       -3.0988435679        1.4325185473
 C         -0.6273244196       -4.0518511779       -0.4823908486
 C         -0.3461069306       -5.4311982963        0.0319890744
 C         -1.7611821180       -4.9688029586       -0.1381453857
 H         -2.3492414090       -5.3862986473       -0.9415743180
 H         -2.3354517399       -4.7378729918        0.7473209442
 H          0.0359711595       -6.1707632003       -0.6553530618
 H          0.0399435120       -5.5216453037        1.0360979596
 H         -0.4499508574       -3.8488554489       -1.5322794881
