  62
        -98.94674278
 C         -0.0266925933       -1.9841770263       -0.5654753999
 C          0.6350453429       -2.1670702009        0.6726426161
 C          2.0767897994       -1.8947732999        0.6673824380
 C          2.6838637613       -1.5180746106       -0.4726828829
 C          4.1588476901       -1.2754995951       -0.6463756469
 C          4.6148509195        0.1359393344       -0.2554662076
 C          4.6044946584        0.4363702817        1.2433710703
 H          5.1683236658       -0.3325542159        1.7724242633
 H          5.1321726974        1.3813001594        1.3841936872
 C          3.2010305808        0.5592208529        1.8533941308
 H          2.4663076997        0.7050309087        1.0576895356
 H          3.1560815607        1.4439123063        2.4918166510
 C          2.7790738398       -0.6366223421        2.7078611081
 H          3.4255356575       -0.7068796427        3.5855462609
 H          1.7561997195       -0.4673969194        3.0546316577
 C          2.8112318584       -1.9820662528        1.9704691179
 H          3.8409846399       -2.3012474700        1.8116290874
 H          2.3041148191       -2.7260797250        2.5894952903
 H          3.9773044160        0.8549797068       -0.7704638130
 H          5.6355823522        0.2619163224       -0.6236233132
 H          4.7173198415       -2.0151240180       -0.0718083353
 H          4.3751964335       -1.4249783331       -1.7064560277
 O          2.0073511216       -1.3398300844       -1.6394932759
 C          0.6374871901       -1.5399030987       -1.7073883173
 O          0.1364820704       -1.2948745272       -2.8247999378
 H         -1.1733055833        0.3723598795       -0.3341119780
 C         -1.9299683076        0.0007100663        0.3417633015
 C         -2.2471341175       -1.3521222838        0.3282122032
 C         -3.2201259491       -1.8153420129        1.2034735942
 C         -3.8465893257       -0.9425355040        2.0763401182
 C         -3.5401156240        0.4053249057        2.0738300240
 C         -2.5758071453        0.8816660157        1.1921305887
 N         -2.2406994021        2.2437331510        1.1534154041
 S         -1.9815641923        2.9995143780       -0.3195581995
 O         -2.3749283096        4.3745294172       -0.0906344931
 O         -2.6590985521        2.3140049489       -1.3937936525
 C         -0.2174757122        2.9679495048       -0.5546585416
 C          0.3386235118        2.2521159740       -1.5953610302
 C          1.7092489962        2.3147606227       -1.7949809338
 C          2.4946608801        3.0923174938       -0.9578854116
 C          1.9229704310        3.7935127134        0.0932907660
 C          0.5549610453        3.7334332734        0.2978675649
 H          0.0683150154        4.2798052628        1.0884199790
 H          2.5396082362        4.3900247975        0.7457328489
 H          3.5578776103        3.1585197031       -1.1287956005
 H          2.1475123836        1.7518810503       -2.6049744034
 H         -0.2970200282        1.6595196114       -2.2367176038
 H         -2.7784144255        2.8274949677        1.7776514955
 H         -4.0384030099        1.0863403931        2.7471396181
 H         -4.5928533805       -1.3164120374        2.7609994870
 H         -3.4833378284       -2.8601775159        1.2095106113
 C         -1.5202930995       -2.2339913424       -0.6581892335
 H         -1.8232430817       -1.9242962711       -1.6699279764
 C         -1.8151524512       -3.7100931676       -0.4905198253
 C         -3.0249838715       -4.3160394629       -1.1340037672
 C         -1.6594053807       -4.6168368905       -1.6727237833
 H         -1.2471540760       -5.6024257132       -1.5169017228
 H         -1.3654865726       -4.1639254805       -2.6088033183
 H         -3.5512820336       -5.0997411997       -0.6102528616
 H         -3.6641127801       -3.6637121320       -1.7100921925
 H         -1.5022277185       -4.0894298826        0.4754093437
 O          0.0568237647       -2.5467902191        1.7236479996
