  62
        -98.94433307
 C         -1.6130798985       -1.3765692345        0.5427810812
 C         -1.6019874612       -0.0652857091        1.0842536484
 C         -2.7360576915        0.7908826232        0.7223884583
 C         -3.7118021756        0.3057334904       -0.0666936044
 C         -4.9535581128        1.0406627533       -0.4936697703
 C         -4.7598792029        1.9296589072       -1.7295622196
 C         -3.9437198135        3.2007375710       -1.4927677733
 H         -4.0642408490        3.8277291776       -2.3784426927
 H         -4.3626566007        3.7473226233       -0.6473689938
 C         -2.4461185178        2.9558133766       -1.2600869771
 H         -2.1829582058        1.9521202348       -1.6025924809
 H         -1.8651855562        3.6590112900       -1.8606297929
 C         -1.9926339330        3.1188752184        0.1906259657
 H         -0.9271399747        2.8829837695        0.2420133639
 H         -2.1266719404        4.1574503562        0.5000007357
 C         -2.7234647641        2.2141751384        1.1913285293
 H         -3.7402919995        2.5713535831        1.3528855803
 H         -2.1832924366        2.2465796639        2.1403178652
 H         -4.2894475472        1.3352172485       -2.5163395270
 H         -5.7527092918        2.2199350333       -2.0811912008
 H         -5.3256382007        1.6433088252        0.3352510514
 H         -5.6987431792        0.2785067645       -0.7317657128
 O         -3.6862103254       -0.9572774744       -0.5664392857
 C         -2.6229353621       -1.8145821646       -0.3141422989
 O         -2.7164913401       -2.9120295800       -0.8959901395
 O         -0.6909719049        0.3650527398        1.8397716326
 C         -0.4293187521       -2.2759017558        0.8615917282
 C          0.4934783173       -2.2674509967       -0.3325071932
 C          0.4768818561       -3.2521746810       -1.3125448782
 C          1.3152503554       -3.1558808597       -2.4092237198
 C          2.1948001156       -2.0961102304       -2.5388001316
 C          2.2176136360       -1.1047694560       -1.5638104553
 C          1.3611016864       -1.1916018740       -0.4781086823
 H          1.3662349299       -0.4125115134        0.2697690038
 N          3.0899743542       -0.0103836600       -1.6639177464
 S          3.8963290567        0.5252357214       -0.2942313751
 O          5.0888608564        1.1652648655       -0.8106052182
 O          4.1126175259       -0.5515208189        0.6438053054
 C          2.8462885325        1.7763782209        0.4093031684
 C          2.5047729224        2.8571320587       -0.3801068235
 C          1.7283316244        3.8644798628        0.1674161165
 C          1.3094778947        3.7746688620        1.4872405078
 C          1.6600494019        2.6832948592        2.2652591171
 C          2.4387072983        1.6734665229        1.7233447716
 H          2.7283749587        0.8055370543        2.2944670235
 H          1.3238274284        2.6065198479        3.2863967781
 H          0.7014883535        4.5585369366        1.9110199204
 H          1.4477711083        4.7143964938       -0.4339844358
 H          2.8543585702        2.8920073679       -1.3986882021
 H          3.7042602511       -0.0333119527       -2.4651358403
 H          2.8574911699       -2.0319574255       -3.3888607470
 H          1.2907614811       -3.9228384867       -3.1688236969
 H         -0.2078567242       -4.0796745946       -1.2251515358
 H          0.0972178359       -1.7773877288        1.6874703483
 C         -0.8314786879       -3.6623135447        1.3143016797
 C          0.1949667397       -4.5341180281        1.9718892526
 C         -0.9253058304       -3.9544574581        2.7806876312
 H         -1.7082156747       -4.6137773476        3.1243229935
 H         -0.6968620226       -3.1529270401        3.4679352230
 H          0.1848218207       -5.5927349271        1.7622802052
 H          1.1845257466       -4.1222370807        2.1051428804
 H         -1.5610857040       -4.1356144536        0.6699394030
