  62
        -98.93390317
 C          2.4160051006        1.1017252809        0.3149876598
 C          2.4496481708       -0.1195599893        1.0347998195
 C          3.5860284710       -1.0223959990        0.7813177294
 C          4.5294298010       -0.6563532185       -0.1062324404
 C          5.8167386812       -1.3287096681       -0.5365786204
 C          6.1047956215       -2.7779215782       -0.1553164308
 C          5.2113553619       -3.8075549882       -0.8470937311
 H          5.4844518520       -3.8474587779       -1.9045018611
 H          5.4170148020       -4.7881794883       -0.4129041713
 C          3.7108056318       -3.5357750186       -0.7725563112
 H          3.1987874720       -4.3246986885       -1.3302719415
 H          3.4818890916       -2.5913896585       -1.2708266810
 C          3.1190293616       -3.5074497391        0.6351816887
 H          3.3551665718       -4.4394607591        1.1528065085
 H          2.0311368816       -3.4466457293        0.5353839186
 C          3.5675739512       -2.3309243892        1.5180078091
 H          2.8366453211       -2.2175045996        2.3242738790
 H          4.5328221012       -2.5284904591        1.9782566491
 H          6.0639155514       -2.8973264885        0.9232916892
 H          7.1357552516       -2.9809005879       -0.4573462707
 H          6.6218729610       -0.6995882281       -0.1415501102
 H          5.8562723813       -1.2294963379       -1.6259390504
 O          4.4576552808        0.5306855916       -0.7730097601
 C          3.4162079806        1.4280397413       -0.5992780800
 O          3.5231308204        2.4475756215       -1.3077179997
 O          1.5691059608       -0.4390475697        1.8801664293
 C          1.2438390803        2.0285645505        0.5884346799
 C          0.1817098105        1.9038044305       -0.4784264102
 C          0.4048348605        2.3310269309       -1.7835802201
 C         -0.5886088793        2.2068721409       -2.7371837702
 C         -1.8164916093        1.6584056606       -2.4119283905
 C         -2.0517739493        1.2328595602       -1.1094692206
 C         -1.0527371094        1.3586250902       -0.1540375405
 H         -1.2389309895        1.0069033699        0.8498414694
 N         -3.3092592192        0.7182149098       -0.7490288509
 S         -3.4120486491       -0.5061132005        0.4084411288
 O         -3.2317529293        0.0726374392        1.7155630689
 O         -2.5379543088       -1.6026840302        0.0549159886
 C         -5.1190579189       -0.9769669209        0.1970977085
 C         -5.4336375786       -2.1175873708       -0.5164989418
 C         -6.7676103985       -2.4499730910       -0.6952759221
 C         -7.7584575587       -1.6387748214       -0.1633376020
 C         -7.4271080291       -0.4971943715        0.5517287383
 C         -6.0957312192       -0.1601971012        0.7354771286
 H         -5.7898507394        0.7111056187        1.2905975188
 H         -8.2001724293        0.1295295482        0.9661621084
 H         -8.7954987087       -1.8992556616       -0.3045237422
 H         -7.0280047982       -3.3385377210       -1.2475205623
 H         -4.6292056584       -2.7211747905       -0.9053638919
 H         -3.8811732591        0.5001675999       -1.5542549210
 H         -2.5893781991        1.5624737706       -3.1595393006
 H         -0.4026637693        2.5371708312       -3.7481372601
 H          1.3680205405        2.7407174112       -2.0450965999
 H          0.8067755903        1.6642496302        1.5287829398
 C          1.6505473300        3.4768934106        0.7798231203
 C          0.7135734497        4.3988976702        1.4984400005
 C          1.9905585297        3.9672420403        2.1535163405
 H          2.7873150895        4.6879601904        2.2597425908
 H          1.9326329998        3.2571693601        2.9659729003
 H          0.6304367595        5.4185922402        1.1555369507
 H         -0.2114450603        3.9801823798        1.8665064703
 H          2.2215154400        3.8785614809       -0.0466662295
