  62
        -98.93800629
 C          1.1323050399        1.0914856902        0.7073964995
 C          1.6244493199        0.5774906904       -0.5182288806
 C          2.4259197905       -0.6521874193       -0.4124407108
 C          2.5907377410       -1.2508688592        0.7800514892
 C          3.3529434116       -2.5226237588        1.0363749391
 C          4.8626790116       -2.3137682981        1.2188981087
 C          5.6303970711       -1.9679735478       -0.0579264915
 H          5.4009827913       -2.7041645280       -0.8288606114
 H          6.6932596212       -2.0603245574        0.1741629383
 C          5.3637341404       -0.5547609080       -0.5954371814
 H          6.3123018501       -0.0800757375       -0.8562778517
 H          4.9086317203        0.0534675418        0.1898576387
 C          4.4753266801       -0.5055246484       -1.8386880912
 H          4.9838431401       -0.9969122182       -2.6709204813
 H          4.3222815495        0.5424264615       -2.1078825912
 C          3.0970169204       -1.1545602390       -1.6559891109
 H          3.1962538509       -2.2396570390       -1.6286699009
 H          2.4715365101       -0.8756446793       -2.5073793608
 H          5.2732766221       -3.2410455280        1.6251408087
 H          5.0186231914       -1.5286325881        1.9626154087
 H          3.1783500618       -3.2288485489        0.2240696691
 H          2.9489598520       -2.9468956090        1.9582570392
 O          2.0463536510       -0.7580978094        1.9259407193
 C          1.3424210205        0.4348973503        1.9223096295
 O          0.9554542306        0.8009346601        3.0521148195
 O          1.4217399894        1.0971249502       -1.6417605806
 C          0.3238562394        2.3832786598        0.7720078497
 C         -0.8870020708        2.2397329892       -0.1175504801
 C         -1.0178194513        2.6989625792       -1.4224720901
 C         -2.1742485613        2.4517088086       -2.1429505598
 C         -3.2151001309        1.7240520782       -1.5981462095
 C         -3.0924545204        1.2430074483       -0.3001517395
 C         -1.9448092803        1.5146780788        0.4263381902
 H         -1.8678695899        1.1359960588        1.4359908302
 N         -4.1237332299        0.4870510478        0.2906505207
 S         -3.7352843091       -0.9701168920        1.0147727706
 O         -5.0018639387       -1.6578144626        1.1433672310
 O         -3.0083896089       -0.7440544116        2.2370259105
 C         -2.7158193790       -1.8076918616       -0.1843026396
 C         -3.3438795689       -2.4755194719       -1.2182474894
 C         -2.5711060589       -3.0802874616       -2.1953180796
 C         -1.1883117289       -3.0010447509       -2.1260920999
 C         -0.5731611089       -2.3292355806       -1.0816468700
 C         -1.3413315290       -1.7226226710       -0.1001441699
 H         -0.8900257990       -1.1922593607        0.7248845800
 H          0.5016126410       -2.2592795002       -1.0248021103
 H         -0.5828311588       -3.4659262307       -2.8878554600
 H         -3.0459469588       -3.6079934418       -3.0065120994
 H         -4.4208365689       -2.5225029324       -1.2256436092
 H         -4.9349300200        0.3732993374       -0.3011081691
 H         -4.1105054709        1.5263177178       -2.1673372693
 H         -2.2562003117        2.8216394486       -3.1536194698
 H         -0.2136960416        3.2255011095       -1.9023703002
 H         -0.0604195204        2.4134429297        1.8041977097
 C          1.2379068688        3.5960082602        0.6570333094
 C          1.9264565183        4.0605102205       -0.5894689208
 C          0.8474168781        4.8991503700        0.0278858295
 H          1.1379855678        5.8092198302        0.5317137094
 H         -0.1106090621        4.9586660996       -0.4628721703
 H          2.9494738082        4.3969748910       -0.4940620310
 H          1.7398742183        3.5256555404       -1.5056820107
 H          1.8357435290        3.6705434005        1.5635094093
