  62
        -98.93636286
 C         -1.5506735425       -1.4938260144       -0.1690408287
 C         -1.6246950924       -0.0912029760       -0.3306397340
 C         -2.9668031600        0.5167086150       -0.2197628669
 C         -4.0310642726       -0.2771202341       -0.0064010731
 C         -5.4838184656        0.1028753017        0.1305082561
 C         -6.0211273526        1.1356980224       -0.8721264140
 C         -6.3285686044        2.4938156141       -0.2393671479
 H         -7.0697907674        3.0073858498       -0.8556968810
 H         -6.7796746372        2.3267632221        0.7409502160
 C         -5.1273915193        3.4258967885       -0.0896636320
 H         -5.4489839863        4.2885270394        0.4986973336
 H         -4.8322169038        3.7966059615       -1.0736632860
 C         -3.8983265708        2.8075479743        0.5801846201
 H         -4.1947465505        2.1788129421        1.4191273090
 H         -3.2965949618        3.6210653587        0.9918826200
 C         -3.0052577071        2.0118870173       -0.3833295024
 H         -3.2703213763        2.2482918354       -1.4181553089
 H         -1.9644926642        2.3291373643       -0.2599436195
 H         -6.9486178421        0.7421585367       -1.2910219142
 H         -5.3187684446        1.2524521174       -1.6958921777
 H         -5.6569184908        0.4517425214        1.1516099024
 H         -6.0322077918       -0.8361052369        0.0261294053
 O         -3.9103617959       -1.6276801091        0.1439749813
 C         -2.6850347792       -2.2632669496        0.0895115864
 O         -2.7351410243       -3.4957214167        0.2766467705
 O         -0.6240161531        0.6348893599       -0.5660758325
 C         -0.2151768155       -2.2188978296       -0.2219436827
 C          0.5991816661       -1.8042129656        0.9800835260
 C          0.1703304473       -2.1948315796        2.2467223881
 C          0.8734725417       -1.8206382801        3.3749840580
 C          2.0067754871       -1.0318012509        3.2655078626
 C          2.4374589634       -0.6292878857        2.0087175321
 C          1.7435855466       -1.0318130360        0.8749771287
 H          2.0995790662       -0.7254302029       -0.0919785490
 N          3.5882325769        0.1653418037        1.8494272058
 S          3.4229782257        1.6191849669        1.0128565396
 O          4.5854424819        2.3874324692        1.4118008194
 O          2.1438629115        2.2336345709        1.2788754146
 C          3.5924250263        1.1818272343       -0.7033272658
 C          4.8272808241        0.7369020541       -1.1337855033
 C          4.9860134194        0.3879022939       -2.4650195407
 C          3.9133956398        0.4934068832       -3.3381239102
 C          2.6823087618        0.9467217935       -2.8895652688
 C          2.5139511187        1.2965254482       -1.5582130397
 H          1.5615542421        1.6205678460       -1.1672534509
 H          1.8455866892        1.0242214866       -3.5660975751
 H          4.0351744732        0.2195320970       -4.3744782833
 H          5.9411755572        0.0338236287       -2.8177740556
 H          5.6344803991        0.6784098591       -0.4228670622
 H          4.0923742747        0.3283129042        2.7104322602
 H          2.5506050756       -0.7276287009        4.1476057224
 H          0.5333186340       -2.1361623310        4.3500945841
 H         -0.7249601041       -2.7962535607        2.3306041621
 H         -0.4508050731       -3.2871638970       -0.1161227945
 C          0.4883599606       -1.9977752103       -1.5438659856
 C          1.6206075634       -2.8954047484       -1.9407801119
 C          0.3049446057       -2.9881295874       -2.6521557588
 H          0.2377004648       -2.6201123554       -3.6647461934
 H         -0.3234329695       -3.8452239646       -2.4576068993
 H          2.4600624912       -2.4623013542       -2.4633514405
 H          1.8861306820       -3.6913768494       -1.2617073028
 H          0.5521890938       -0.9526188593       -1.8187650779
