  62
        -98.94042277
 C         -2.0664871724       -1.0166688839        0.5287095093
 C         -2.7755146861       -0.0487798559        1.2861342531
 C         -4.1929874166        0.1272960414        0.9567113894
 C         -4.7497738139       -0.6295345760       -0.0059804287
 C         -6.1889798691       -0.5912418144       -0.4430414639
 C         -6.4994824730        0.5058352836       -1.4704304128
 C         -6.5115407174        1.9309896735       -0.9160992380
 H         -6.9532560569        2.5696510107       -1.6836631016
 H         -7.1628561928        1.9745590485       -0.0425729839
 C         -5.1248674099        2.4819258334       -0.5548479384
 H         -4.3538871049        1.8746126059       -1.0349568641
 H         -5.0218388080        3.4959647657       -0.9478605163
 C         -4.8385495386        2.5474249238        0.9455120926
 H         -5.5201077396        3.2583661453        1.4180649169
 H         -3.8186623836        2.9161817453        1.0830151849
 C         -4.9572324879        1.2005992114        1.6708579011
 H         -4.5249424221        1.3091773894        2.6686588450
 H         -6.0052625689        0.9191118677        1.7722310924
 H         -7.4867488054        0.2926251704       -1.8867417035
 H         -5.7738765810        0.4380286763       -2.2842690398
 H         -6.8334855598       -0.4688655496        0.4279410684
 H         -6.4011699167       -1.5603680830       -0.8997352720
 O         -4.0440713639       -1.5589290695       -0.6990253504
 C         -2.6845698720       -1.7599375706       -0.4781364019
 O         -2.1813090561       -2.6139839244       -1.2291693778
 O         -2.2438504599        0.6297189146        2.2063383648
 C         -0.5957791198       -1.1866105241        0.8630769375
 C          0.2539403440       -0.2603213924        0.0315944276
 C          0.1248563891       -0.2115099636       -1.3528354223
 C          0.9215100948        0.6344902948       -2.1029848980
 C          1.8650421667        1.4418175644       -1.4915760315
 C          2.0053046021        1.3965491426       -0.1113421141
 C          1.2009979371        0.5498310827        0.6406305136
 H          1.3027983672        0.5321817050        1.7173119953
 N          2.9912777187        2.1920439780        0.5072159938
 S          4.5693027381        1.8989863032        0.0140259950
 O          5.4065858160        2.4162664472        1.0718470714
 O          4.7708734584        2.4646112899       -1.2950025753
 C          4.6662539396        0.1200198464       -0.0572886217
 C          4.8501288791       -0.5720905652        1.1235566483
 C          4.8255882872       -1.9569936892        1.0999198033
 C          4.6036731650       -2.6227052699       -0.0960723792
 C          4.4229231242       -1.9133836257       -1.2728922130
 C          4.4538403122       -0.5280294923       -1.2573704750
 H          4.3213888376        0.0582307500       -2.1515305548
 H          4.2508260252       -2.4343218201       -2.2009329650
 H          4.5680032119       -3.7001607803       -0.1101549860
 H          4.9693274340       -2.5123805094        2.0128156233
 H          5.0205305192       -0.0176323696        2.0327471342
 H          2.9385842399        2.1806256065        1.5161104949
 H          2.4991997624        2.1016043213       -2.0615281983
 H          0.8077693846        0.6649486697       -3.1761259454
 H         -0.6018817307       -0.8497754432       -1.8325185756
 H         -0.5121837366       -0.8558262869        1.9106476994
 C         -0.1167114645       -2.6308847148        0.8036544334
 C          0.8727183702       -3.1355286021       -0.1996034889
 C          1.2812639341       -2.9685095888        1.2309231556
 H          1.4391534226       -3.8490553781        1.8344044372
 H          1.9405733531       -2.1457646853        1.4644118878
 H          0.7216437517       -4.1308630681       -0.5876164591
 H          1.2671173050       -2.4411695266       -0.9245161555
 H         -0.8964723006       -3.3258760228        1.0969256823
