  62
        -98.94793679
 C          1.1423153576        1.1925481895        0.4755714171
 C          1.5398754864        0.4818424507       -0.6823680009
 C          2.3047556653       -0.7491289677       -0.4385794276
 C          2.4800543691       -1.1899081025        0.8201577721
 C          3.1941152117       -2.4511206793        1.2248235198
 C          4.7155146630       -2.2900387323        1.3504238029
 C          5.4647254010       -2.1421976413        0.0253465185
 H          6.5282933265       -2.2520775625        0.2459860856
 H          5.1851953236       -2.9582440470       -0.6415965941
 C          5.2431440871       -0.7968452876       -0.6804183287
 H          4.8311645950       -0.0765881318        0.0303580183
 H          6.2037289616       -0.3995503191       -1.0158779480
 C          4.3288461764       -0.8652010461       -1.9038476310
 H          4.7989588497       -1.4759397049       -2.6776088166
 H          4.2099825242        0.1467463507       -2.2988779835
 C          2.9310306545       -1.4311188030       -1.6185370215
 H          2.2996659419       -1.2369426495       -2.4890228023
 H          2.9940458697       -2.5071945529       -1.4555440730
 H          4.9232441052       -1.4256706331        1.9856508752
 H          5.0958845908       -3.1768262560        1.8627015428
 H          2.7951770070       -2.7344702185        2.2014494287
 H          2.9689661676       -3.2474862255        0.5148113109
 O          1.9934681434       -0.5254880739        1.9041354894
 C          1.3652848604        0.7026388614        1.7627150014
 O          1.0523759758        1.2470780315        2.8416841455
 H         -1.5505757487        1.0276291088        1.2653740349
 C         -1.8222462267        1.4902759857        0.3270803862
 C         -0.9124040220        2.3243301662       -0.3132840134
 C         -1.2853389033        2.9275559075       -1.5066092004
 C         -2.5373361714        2.6897085107       -2.0470161007
 C         -3.4370959083        1.8547299374       -1.4116331004
 C         -3.0774822904        1.2533409790       -0.2096242185
 N         -3.9904034789        0.4338067267        0.4756076142
 S         -3.5062935835       -1.0013217067        1.1764361027
 O         -4.7473963333       -1.6869230133        1.4659719160
 O         -2.6411330471       -0.7512663985        2.3004005488
 C         -2.6344028944       -1.8737981374       -0.1094539444
 C         -3.3800005997       -2.4911343473       -1.0957703315
 C         -2.7228828698       -3.1459620311       -2.1237351844
 C         -1.3364568658       -3.1712175241       -2.1480713828
 C         -0.6032649542       -2.5500050263       -1.1495926687
 C         -1.2555085801       -1.8889308812       -0.1209010354
 H         -0.7136997910       -1.3925534454        0.6699151243
 H          0.4740147632       -2.5636153736       -1.1652345135
 H         -0.8207585070       -3.6796003525       -2.9472320868
 H         -3.2897968942       -3.6335490501       -2.9002716259
 H         -4.4553839390       -2.4633252912       -1.0276490502
 H         -4.8777934487        0.3193154881        0.0072347286
 H         -4.4140614214        1.6736178162       -1.8329044801
 H         -2.8145450842        3.1601343942       -2.9779651475
 H         -0.5957047839        3.5787872065       -2.0167440434
 C          0.4304980236        2.5280562297        0.3458529192
 H          0.2464289969        2.8712167768        1.3745183247
 C          1.3149100226        3.5380828514       -0.3542738827
 C          1.0912153252        5.0033745955       -0.1368880228
 C          2.2915100237        4.3318360041        0.4581599681
 H          3.2634602564        4.5412518168        0.0370516555
 H          2.3072275774        4.1592881087        1.5249567035
 H          1.2413505924        5.6780724894       -0.9659182115
 H          0.2915103156        5.2924893429        0.5282595254
 H          1.6366126475        3.2082765175       -1.3348469465
 O          1.2845500684        0.8523732356       -1.8561446147
