  62
        -98.94479240
 C          1.8586738381        0.7482997713        0.4156427781
 C          2.4635753643        0.1583823047       -0.7207762265
 C          3.5210543206       -0.8217053758       -0.4398492312
 C          3.8196063843       -1.1407063579        0.8325493156
 C          4.8499682622       -2.1433866147        1.2767092938
 C          6.2784923631       -1.5859113597        1.3412624070
 C          6.9412824935       -1.3364725479       -0.0140177118
 H          8.0014350637       -1.1579171939        0.1763245975
 H          6.8677386272       -2.2372320513       -0.6242582157
 C          6.3700188669       -0.1397631282       -0.7873374464
 H          5.8005127809        0.4960656095       -0.1056401122
 H          7.1904443474        0.4655782211       -1.1791993946
 C          5.4796521331       -0.5168825812       -1.9714761530
 H          5.1011815900        0.4036901361       -2.4228470836
 H          6.0728543541       -1.0413576149       -2.7238525868
 C          4.2751774605       -1.3928551390       -1.6023342800
 H          3.5945046807       -1.4203766536       -2.4569762239
 H          4.6020277294       -2.4093512688       -1.3834553601
 H          6.2656407722       -0.6576725832        1.9171253915
 H          6.8852317491       -2.3093423988        1.8908258428
 H          4.5599352350       -2.4633699219        2.2800074509
 H          4.8258362546       -3.0105131139        0.6158494510
 O          3.1773144711       -0.5875764379        1.8964519656
 C          2.1973329167        0.3760987672        1.7158057533
 O          1.6986958925        0.8069548993        2.7764871157
 O          2.1387942283        0.4296525986       -1.9050951689
 C          0.7717370957        1.7933929664        0.2387696545
 C         -0.4019829416        1.1947433365       -0.4991176161
 C         -1.0364922786        1.8167573787       -1.5657356836
 C         -2.1058828817        1.2054658408       -2.1987258874
 C         -2.5716841797       -0.0260481674       -1.7783713933
 C         -1.9585688042       -0.6460125764       -0.6961250519
 C         -0.8892877261       -0.0318502570       -0.0633302713
 H         -0.4107458516       -0.5188895181        0.7779282550
 N         -2.4360583222       -1.8873504073       -0.2448301314
 S         -4.0908156201       -2.1032628526       -0.1298594035
 O         -4.2719197672       -3.0882373437        0.9136329049
 O         -4.6253710747       -2.4534210707       -1.4223918993
 C         -4.7419259591       -0.5221197842        0.3805915459
 C         -5.6644085495        0.1302746310       -0.4116930345
 C         -6.1372307357        1.3690643933       -0.0090404598
 C         -5.6785614706        1.9325317894        1.1712813915
 C         -4.7544125188        1.2626660216        1.9587524587
 C         -4.2800714348        0.0229938386        1.5622836790
 H         -3.5635740859       -0.5229268654        2.1554739959
 H         -4.3976668454        1.7015511418        2.8768003010
 H         -6.0424187870        2.8992018193        1.4816969227
 H         -6.8571941510        1.8912543553       -0.6181505575
 H         -5.9906463189       -0.3430544706       -1.3234181919
 H         -1.9580177827       -2.2427376234        0.5694419333
 H         -3.3890823760       -0.5234087313       -2.2746901410
 H         -2.5809131261        1.6940746962       -3.0354541763
 H         -0.6874780519        2.7758037741       -1.9105805676
 H          0.4353603228        2.0549913180        1.2528202523
 C          1.3370899998        3.0330356983       -0.4220202979
 C          0.7384647729        4.3775622105       -0.1412524125
 C          2.0820430276        4.0235213442        0.4198123521
 H          2.9587618342        4.4976183602        0.0045900672
 H          2.1589431367        3.8166008016        1.4776875998
 H          0.6943130339        5.1002517040       -0.9419335961
 H         -0.0979630715        4.4202876749        0.5396583097
 H          1.7181168523        2.8368262143       -1.4174539495
