  62
        -98.94965318
 C         -1.5007210508       -1.0741880495        0.0224556097
 C         -2.5120970107       -0.6328562597        0.9058739999
 C         -3.0144807204        0.7248347505        0.6738538305
 C         -2.4818389602        1.4751980108       -0.3082074792
 C         -2.8607479598        2.8928546311       -0.6414939486
 C         -4.0933007198        3.0180832218       -1.5477102985
 C         -5.4300770299        2.7046975418       -0.8744390887
 H         -5.5184538597        3.2888825514        0.0420504816
 H         -6.2168706398        3.0406074123       -1.5527347185
 C         -5.6481796502        1.2176006117       -0.5627124093
 H         -6.6530932903        0.9236405321       -0.8736272494
 H         -4.9437395904        0.6170880418       -1.1425994696
 C         -5.5065911303        0.8527172810        0.9149041205
 H         -5.6455305006       -0.2265603290        1.0167187301
 H         -6.2893654602        1.3492174710        1.4925225007
 C         -4.1464267702        1.2136844404        1.5265917307
 H         -4.0723116800        2.2911091004        1.6752832912
 H         -4.0646862204        0.7218473800        2.4993483205
 H         -4.1258754895        4.0478537219       -1.9108569681
 H         -3.9581850099        2.3642402621       -2.4122497388
 H         -3.0237992397        3.4521172207        0.2805002217
 H         -2.0019819297        3.3270005811       -1.1585251084
 O         -1.4960301903        1.0217700010       -1.1249634894
 C         -0.9781414406       -0.2532052892       -0.9761131099
 O         -0.0737074906       -0.5390451791       -1.7856922100
 H          0.4062963493       -0.5920192807        1.6026816299
 C          1.0844295092       -1.3105826807        1.1655257896
 C          0.5862547589       -2.3606710802        0.4048934992
 C          1.4873148787       -3.2729316902       -0.1308308712
 C          2.8485258487       -3.1166516206        0.0676610888
 C          3.3411972490       -2.0382901111        0.7796129893
 C          2.4468858992       -1.1271007511        1.3283459297
 N          2.8888288395        0.0120208985        2.0370223502
 S          2.5745123498        1.4906760989        1.3057495009
 O          3.1837927701        2.4765179084        2.1737660213
 O          1.1616577699        1.6352022994        1.0704743809
 C          3.4901011198        1.4065468694       -0.2233072992
 C          4.7660437099        1.9379116091       -0.2490929089
 C          5.5281689399        1.8024740294       -1.3974774990
 C          5.0075670198        1.1288031500       -2.4925255493
 C          3.7274460996        0.5991744303       -2.4485280795
 C          2.9550212697        0.7346602800       -1.3040430895
 H          1.9533686896        0.3348150302       -1.2546272797
 H          3.3150965195        0.0747906107       -3.2956423598
 H          5.6014327997        1.0162521202       -3.3858882493
 H          6.5226779400        2.2171868591       -1.4337838488
 H          5.1253097901        2.4544066286        0.6265195813
 H          3.8690809895       -0.0233575518        2.2847011402
 H          4.4038888290       -1.8983074014        0.9090125594
 H          3.5354585585       -3.8330915906       -0.3559728315
 H          1.1226159485       -4.1049348799       -0.7109349816
 C         -0.9063753911       -2.4579498598        0.2054980191
 H         -1.3565473612       -2.8519619601        1.1295299689
 C         -1.2979474913       -3.3566920192       -0.9503492613
 C         -1.5106330417       -4.8250686292       -0.7372786419
 C         -2.6836845715       -3.9260458388       -0.9830682815
 H         -3.1948605115       -3.9869506883       -1.9321120616
 H         -3.3331198814       -3.6901226690       -0.1525494614
 H         -1.2185933418       -5.5071614689       -1.5214942922
 H         -1.3720448118       -5.2117057797        0.2610167279
 H         -0.8689244312       -3.0300372789       -1.8912092111
 O         -2.9656250709       -1.3376208100        1.8495297696
