  62
        -98.94214265
 C         -2.2225971420       -0.8981375248        0.1257136982
 C         -1.6398528689       -0.0819258428       -0.8713138876
 C         -2.0746687086        1.3255534295       -0.9068638717
 C         -2.9112908177        1.7779026268        0.0427298984
 C         -3.5447058862        3.1397964022        0.1967873416
 C         -2.7223997099        4.3740796407       -0.1822898864
 C         -1.2404543260        4.3075409829        0.2140173778
 H         -0.9816585681        5.2021985296        0.7838837723
 H         -1.0571855504        3.4465752898        0.8608295168
 C         -0.3032919680        4.2218507081       -0.9916603627
 H          0.6955220824        4.5373934730       -0.6799321501
 H         -0.6459626164        4.9150444745       -1.7636439121
 C         -0.1682591552        2.8208710472       -1.5827118126
 H          0.4962628746        2.8779229448       -2.4484444119
 H          0.3106605966        2.1732691052       -0.8444743027
 C         -1.4885447480        2.1580223551       -2.0121346791
 H         -2.1989461856        2.8960625818       -2.3779561665
 H         -1.2663244831        1.4595906713       -2.8236514072
 H         -3.1940192564        5.2255418207        0.3120682518
 H         -2.7997016926        4.5511518859       -1.2538769512
 H         -4.4747372900        3.1402519765       -0.3809598273
 H         -3.8260803240        3.2021149624        1.2514873975
 O         -3.3701129952        0.9749030462        1.0479503448
 C         -3.0457049602       -0.3672673106        1.1142918091
 O         -3.5414577829       -0.9719264189        2.0898774012
 H         -0.3238959018       -1.0903437002        1.9027294233
 C          0.2617011310       -1.7428084732        1.2656244721
 C         -0.3849936546       -2.5283558825        0.3189983196
 C          0.3835704580       -3.3632613689       -0.4814575115
 C          1.7635701188       -3.3748352802       -0.3660882446
 C          2.4052699846       -2.5401532097        0.5311220324
 C          1.6416318329       -1.7236209031        1.3536244091
 N          2.3080879402       -0.7908415142        2.2056517281
 S          2.2776634613        0.7419146965        1.4874022436
 O          3.0279509638        1.6068498924        2.3741802918
 O          0.9209783812        1.1697034861        1.2189494925
 C          3.1825529693        0.4639517113       -0.0156185943
 C          4.5581549787        0.5862985846        0.0285917851
 C          5.2924312944        0.3207261739       -1.1153921916
 C          4.6405620848       -0.0670777859       -2.2767365727
 C          3.2599905180       -0.1880150464       -2.3021799702
 C          2.5167152184        0.0766634574       -1.1618137373
 H          1.4413223261       -0.0197382059       -1.1600747902
 H          2.7475213931       -0.4932570824       -3.2002179310
 H          5.2111963577       -0.2774782474       -3.1675868958
 H          6.3664003501        0.4133948187       -1.0975852181
 H          5.0158237040        0.8919745975        0.9550902107
 H          1.8661793757       -0.7107261650        3.1128652067
 H          3.4801487845       -2.5059439880        0.6016309567
 H          2.3467856141       -4.0227173749       -1.0016905334
 H         -0.0988314308       -3.9921437568       -1.2116744284
 C         -1.8804264180       -2.3775942484        0.1951972630
 H         -2.3483939237       -2.7557765655        1.1159936551
 C         -2.4690176391       -3.1076245794       -0.9936436495
 C         -2.8334945689       -4.5570171448       -0.8846565533
 C         -3.9095956826       -3.5163107801       -0.9503808642
 H         -4.4964184262       -3.4336766983       -1.8527293231
 H         -4.4616468201       -3.2886605463       -0.0497644492
 H         -2.6609608050       -5.0462397404        0.0619928810
 H         -2.6859092933       -5.1925061777       -1.7445731765
 H         -2.0811540620       -2.7438193298       -1.9379944166
 O         -0.8137824654       -0.5144236426       -1.7164906281
