  62
        -98.94301477
 C         -2.3401812568       -0.9010535023        0.4510803410
 C         -2.5227044585        0.1291355102       -0.5031385113
 C         -3.5023550832        1.1649697562       -0.1470641192
 C         -4.1345069842        1.1198892643        1.0388557078
 C         -5.1312222908        2.1217323655        1.5548463657
 C         -6.5656638432        1.8874587473        1.0616744923
 C         -6.8121699673        2.2290125879       -0.4083518537
 H         -7.8932772659        2.2272915562       -0.5607607737
 H         -6.4569898246        3.2400913709       -0.6099944280
 C         -6.1726868391        1.2487798261       -1.4016660223
 H         -5.9116674525        0.3231061197       -0.8835423373
 H         -6.8987578749        0.9881492725       -2.1750602506
 C         -4.9294196669        1.7856848568       -2.1108150116
 H         -5.2043948833        2.6348395863       -2.7405554557
 H         -4.5382334007        0.9981219473       -2.7600431091
 C         -3.8031469757        2.2234586504       -1.1654835248
 H         -2.8994115993        2.3819540969       -1.7590960060
 H         -4.0671061325        3.1598150003       -0.6745146751
 H         -6.8311320522        0.8433200255        1.2425652481
 H         -7.2251774484        2.5084578301        1.6722376549
 H         -5.1231080021        2.0339045513        2.6433892752
 H         -4.8123117499        3.1289266977        1.2851041707
 O         -3.9124143547        0.1298263591        1.9425480077
 C         -3.0374750205       -0.9046798785        1.6648865730
 O         -2.9636981621       -1.7623899679        2.5672418636
 H          0.1494425260       -0.2827038910       -1.0718774488
 C          0.6859246300       -0.7486163237       -0.2584745622
 C          0.0369468849       -1.6857008829        0.5325713746
 C          0.7368804882       -2.2673209561        1.5831711596
 C          2.0512187193       -1.9144029088        1.8339484272
 C          2.6920828643       -0.9737764333        1.0475618353
 C          2.0014279136       -0.3864036269       -0.0043874368
 N          2.6281749388        0.5920770675       -0.7935205804
 S          4.1693043759        0.2961872004       -1.3828883554
 O          4.2983327827        1.1387660919       -2.5516472105
 O          4.4013331512       -1.1159886475       -1.5808180981
 C          5.2412164413        0.9166750314       -0.1030225506
 C          6.2225942464        0.1038302954        0.4294997055
 C          7.0518436732        0.6130458709        1.4169096070
 C          6.8866052044        1.9192770004        1.8510627787
 C          5.8980907489        2.7237939532        1.3038151577
 C          5.0667470341        2.2211388205        0.3158159838
 H          4.2893051355        2.8139857519       -0.1366007304
 H          5.7724447502        3.7392206621        1.6437407093
 H          7.5319254544        2.3131285539        2.6203135589
 H          7.8213752427       -0.0103111158        1.8431349766
 H          6.3106569040       -0.9072631386        0.0648411063
 H          2.0287364700        0.9736102790       -1.5111407094
 H          3.7149469999       -0.6940973015        1.2400464605
 H          2.5824089694       -2.3742794332        2.6533174747
 H          0.2389192242       -2.9920391901        2.2109667221
 C         -1.3945266796       -2.0757227455        0.2483754467
 H         -1.6902234313       -2.8228754844        0.9968904162
 C         -1.5203297918       -2.7043219325       -1.1265434163
 C         -1.0692845577       -4.1191085040       -1.3216679995
 C         -2.5307411476       -3.7872379485       -1.3485642469
 H         -3.0522140894       -3.8195080130       -2.2934747571
 H         -3.1368860759       -4.0855513193       -0.5052674933
 H         -0.6849816532       -4.6446983149       -0.4605562590
 H         -0.5824605358       -4.3810965163       -2.2486558310
 H         -1.3551699195       -2.0072352818       -1.9374041862
 O         -1.9110034672        0.2103205018       -1.6029989894
