  62
        -98.93216287
 C         -2.4059746290       -0.5617218223        0.5168560938
 C         -3.2255089433       -0.4453350311       -0.6308365347
 C         -4.3255504735        0.5386026898       -0.5540113460
 C         -4.4868305621        1.2771872988        0.5584340659
 C         -5.4743293241        2.3754790330        0.8941245853
 C         -6.7273414470        2.5865896096        0.0480555512
 C         -7.7491049389        1.4526461392        0.1227928696
 H         -8.1878300262        1.4451648378        1.1238218749
 H         -8.5493215958        1.6669568878       -0.5890139182
 C         -7.2026557977        0.0535982505       -0.1506663783
 H         -8.0338745448       -0.6519351436       -0.0668709491
 H         -6.4765813472       -0.2135452513        0.6200598667
 C         -6.5635782706       -0.1423214087       -1.5241548213
 H         -6.3686695891       -1.2112639270       -1.6461604161
 H         -7.2665109923        0.1595657038       -2.3029706100
 C         -5.2336121112        0.5981167366       -1.7486897169
 H         -4.7021536279        0.0966250189       -2.5627120058
 H         -5.4000255654        1.6284199573       -2.0535042470
 H         -6.4561638823        2.7866843509       -0.9842632458
 H         -7.2102106792        3.4906270576        0.4290933555
 H         -5.7701637793        2.2001285279        1.9333801319
 H         -4.8951835279        3.3055637356        0.8922037607
 O         -3.6517771910        1.1474057468        1.6319980172
 C         -2.6150401401        0.2353700767        1.6436595098
 O         -1.9590821184        0.2204675215        2.7055567669
 H          1.1201236761       -1.2648024609        1.8839643480
 C          1.1557102096       -0.8632278573        0.8797642807
 C          0.0188732148       -0.9125469680        0.0870084450
 C          0.0753334655       -0.3748998888       -1.1953108676
 C          1.2458150174        0.1922523999       -1.6647375762
 C          2.3774515434        0.2420784144       -0.8690232633
 C          2.3312273826       -0.2880072394        0.4128832302
 N          3.4702285210       -0.2235078762        1.2316841324
 S          4.9418662141       -0.7368612731        0.6080269320
 O          4.7570120278       -1.7425942134       -0.4118756677
 O          5.7239432151       -1.1244358467        1.7613035512
 C          5.6451232110        0.7358653890       -0.1027937894
 C          6.0105898984        0.7509389384       -1.4345369838
 C          6.5636762067        1.9063262943       -1.9645658687
 C          6.7414866399        3.0194095708       -1.1573418026
 C          6.3719130925        2.9869011210        0.1791959954
 C          5.8191807464        1.8349302204        0.7152846733
 H          5.5229778766        1.7678745293        1.7488707924
 H          6.5118884300        3.8544907923        0.8037636371
 H          7.1710169630        3.9176971852       -1.5719744140
 H          6.8522405439        1.9334271047       -3.0030884738
 H          5.8501871641       -0.1369697247       -2.0253213813
 H          3.3260655736       -0.5833674750        2.1639234044
 H          3.2900703967        0.6861890595       -1.2313535032
 H          1.2774791504        0.6036037914       -2.6623002515
 H         -0.8063323093       -0.4116302563       -1.8169630949
 C         -1.2449201500       -1.5371740963        0.6196927232
 H         -1.1029779667       -1.6953893686        1.7008851701
 C         -1.5486061457       -2.8974911027        0.0059420547
 C         -0.8755391250       -3.4344748618       -1.2175215111
 C         -0.5462341463       -4.0077552884        0.1258426697
 H         -0.8951512214       -4.9994106802        0.3713457968
 H          0.4182624989       -3.7628415118        0.5467675949
 H         -1.4752378617       -4.0165934919       -1.9003404296
 H         -0.1304488238       -2.8259537841       -1.7048761372
 H         -2.5902786241       -3.1728924301        0.1354494352
 O         -3.0646945052       -1.1129992080       -1.6835028671
