  62
        -98.94565737
 C          1.0883174685        1.4814297431        0.7305058185
 C          1.9537324046        1.4565107635       -0.3892225095
 C          2.9727946937        0.3972455517       -0.3852798760
 C          3.0063800889       -0.4838332173        0.6310169687
 C          3.9661886520       -1.6331553277        0.7334523916
 C          3.3954931680       -2.9059976229        0.0934779579
 C          2.8113225505       -2.6937148582       -1.3025398227
 H          2.4650275649       -3.6653106226       -1.6602608135
 H          1.9339462400       -2.0467203359       -1.2279560159
 C          3.7961731860       -2.1020050572       -2.3203985967
 H          3.7039188859       -2.6527932617       -3.2588275429
 H          4.8194114125       -2.2345718792       -1.9667171753
 C          3.5623809418       -0.6261055954       -2.6463238524
 H          4.1599725100       -0.3728000116       -3.5261966910
 H          2.5128148398       -0.4681601195       -2.9076128068
 C          3.9360662513        0.3662073009       -1.5383097977
 H          4.9508244800        0.1639756132       -1.1892463466
 H          3.9151874571        1.3704252895       -1.9717748427
 H          4.1897891011       -3.6531996032        0.0479287313
 H          2.6010796810       -3.2859161546        0.7370827464
 H          4.1594257559       -1.8244385580        1.7902930084
 H          4.9012356103       -1.3576210461        0.2490461039
 O          2.1380589473       -0.4454102056        1.6746160518
 C          1.1611884259        0.5338810429        1.7513424176
 O          0.4314856268        0.4562562958        2.7602725385
 O          1.8885474138        2.2777393869       -1.3407698189
 C         -0.0119369975        2.5253633105        0.8142974326
 C         -0.9699063326        2.3069417568       -0.3319859616
 C         -1.3042960781        3.2795529820       -1.2638294381
 C         -2.1696979569        2.9807407083       -2.3025236226
 C         -2.7335421343        1.7237868850       -2.4187780148
 C         -2.4149939748        0.7462083513       -1.4822937286
 C         -1.5329045294        1.0423647155       -0.4574512230
 H         -1.2800811756        0.2794672955        0.2654005637
 N         -2.9612542764       -0.5450118948       -1.5593605876
 S         -3.4947629220       -1.2779957569       -0.1492009745
 O         -4.4712953948       -2.2487360714       -0.5984234283
 O         -3.9674256216       -0.3006940048        0.8034437768
 C         -2.0897049399       -2.1592354451        0.4949966530
 C         -1.4656202198       -3.0846176664       -0.3187561901
 C         -0.4224852938       -3.8336448988        0.1999363471
 C         -0.0256156112       -3.6478297028        1.5161801237
 C         -0.6532212368       -2.7065420507        2.3159829469
 C         -1.6988635489       -1.9560326093        1.8029193431
 H         -2.2056626898       -1.2098688696        2.3945475912
 H         -0.3314685087       -2.5411163789        3.3315553243
 H          0.7744749573       -4.2440164577        1.9271299639
 H          0.0756743708       -4.5622227886       -0.4193148732
 H         -1.8101287820       -3.2073249149       -1.3321640212
 H         -3.6155361893       -0.6826034483       -2.3165154245
 H         -3.4132283411        1.4961251746       -3.2260285134
 H         -2.4144296387        3.7414479925       -3.0283622491
 H         -0.8804598662        4.2669298609       -1.1852627891
 H         -0.5565233398        2.3218791230        1.7481548035
 C          0.5661073838        3.9221823718        0.8807180108
 C         -0.2267383542        5.0297133069        1.5049197800
 C          0.9720591683        4.4748676818        2.2124869962
 H          1.8644564272        5.0798051106        2.2695915239
 H          0.8122869122        3.8500183732        3.0794230665
 H         -0.1568148383        6.0192155317        1.0791761531
 H         -1.2035648243        4.7856745659        1.8950705817
 H          1.1950493207        4.1570393054        0.0303508621
