  62
        -98.93975419
 C         -2.2722314301       -0.1583746916        0.4638748489
 C         -3.4142364401        0.1343583864        1.2553090196
 C         -4.5054423101        0.8538020181        0.5868552215
 C         -4.3509946301        1.2349758313       -0.6937875276
 C         -5.4026719902        1.9179701333       -1.5179048258
 C         -6.2687187102        0.8958066352       -2.2679836384
 C         -6.7948714901       -0.2363188870       -1.3854531712
 H         -7.4139046501       -0.8786817354       -2.0155668428
 H         -5.9528313001       -0.8414807479       -1.0413191427
 C         -7.6121403501        0.2306564199       -0.1727372100
 H         -7.9410359901        1.2596584903       -0.3219676074
 H         -8.5084662101       -0.3883231503       -0.0953713415
 C         -6.8795191501        0.1227307066        1.1659184297
 H         -7.6095315800        0.2705581645        1.9661165401
 H         -6.4706151700       -0.8846341437        1.2797819272
 C         -5.7459358601        1.1318148160        1.3881344522
 H         -5.4450431300        1.0684042934        2.4379638521
 H         -6.1104128101        2.1427695865        1.1955312048
 H         -7.1082812302        1.4234868564       -2.7240806070
 H         -5.6694137102        0.4551236272       -3.0681690195
 H         -4.9058462802        2.5630946352       -2.2443579542
 H         -6.0253194402        2.5300489717       -0.8682957143
 O         -3.2202795202        0.9942378431       -1.4019358882
 C         -2.1550318101        0.2870480117       -0.8541124000
 O         -1.2015891102        0.1393848237       -1.6402517204
 O         -3.5154379900       -0.1934712366        2.4674580988
 C         -1.1503626400       -0.9323571632        1.1340133769
 C          0.1713412999       -0.2380521127        0.9360848086
 C          0.4929059199        0.8588382953        1.7294663213
 C          1.6965517399        1.5196558757        1.5699906529
 C          2.6027404599        1.1029585581        0.6105403819
 C          2.2865699399        0.0163485702       -0.1926773109
 C          1.0837652199       -0.6529625103       -0.0214716125
 H          0.8455156899       -1.4899478187       -0.6601896446
 N          3.2129050399       -0.4024644873       -1.1761761720
 S          4.5944758799       -1.1490100588       -0.5728812339
 O          5.1408669499       -1.9098207261       -1.6755298258
 O          4.3047751000       -1.8929072019        0.6337134443
 C          5.6794088899        0.2106570902       -0.1982113705
 C          6.0294599499        0.4675633569        1.1126975501
 C          6.8708323699        1.5353132363        1.3839152128
 C          7.3440397799        2.3223379489        0.3450237048
 C          6.9845542798        2.0493111422       -0.9666697759
 C          6.1444395198        0.9829441829       -1.2447634386
 H          5.8437647498        0.7323491854       -2.2484676192
 H          7.3551286298        2.6636126642       -1.7714934344
 H          7.9974488999        3.1534893784        0.5587207768
 H          7.1515163500        1.7493557237        2.4026517933
 H          5.6324775600       -0.1688464850        1.8870240686
 H          2.7904179199       -0.9946694256       -1.8778638034
 H          3.5384637899        1.6193698685        0.4706490831
 H          1.9312039999        2.3676154941        2.1951196751
 H         -0.2178784300        1.1888739934        2.4747106822
 H         -1.3968777200       -0.8878497660        2.2074827570
 C         -1.0963612400       -2.4088679323        0.7672549831
 C         -2.3607516800       -3.2008307920        0.6249711912
 C         -1.5014146501       -2.9396916690       -0.5737925782
 H         -0.9350904101       -3.7625425979       -0.9864788603
 H         -1.8473397901       -2.2367970371       -1.3154190064
 H         -2.3942140300       -4.2008356730        1.0300382387
 H         -3.2931156800       -2.6617627922        0.7100732226
 H         -0.2632724900       -2.9100438235        1.2526544919
