  62
        -98.93821971
 C          2.6806867228       -1.1996007275       -0.2319780705
 C          3.0865191380       -0.2581737397       -1.2130119245
 C          4.2892687499        0.5227126384       -0.9094934858
 C          4.9517004405        0.3011303836        0.2401145204
 C          6.2107156351        0.9941036626        0.6857338048
 C          5.9697849112        2.3455032905        1.3722703697
 C          5.5378312775        3.4797784449        0.4420584522
 H          6.2359645298        3.5492420897       -0.3927444729
 H          5.6172267421        4.4081893368        1.0110863592
 C          4.1044416882        3.3499928641       -0.0920562388
 H          3.5930197161        4.3107755062       -0.0000983757
 H          3.5502503824        2.6337039730        0.5190408719
 C          4.0094943883        2.9254799835       -1.5576622444
 H          4.4422810118        3.7013280063       -2.1931927635
 H          2.9523012551        2.8270992061       -1.8173961200
 C          4.7002264948        1.5927618496       -1.8750908999
 H          5.7828261892        1.7180335424       -1.8664997126
 H          4.3916568970        1.2752421383       -2.8741833879
 H          6.9056068628        2.6366399359        1.8549136985
 H          5.2199612833        2.2106967421        2.1551754719
 H          6.8748621344        1.1314328788       -0.1680904181
 H          6.6963689918        0.3264222331        1.4006414412
 O          4.5457675564       -0.6244821144        1.1465012263
 C          3.3911337548       -1.3775116100        0.9562093827
 O          3.1390403319       -2.1454453558        1.9016150432
 O          2.4721497589       -0.0885870785       -2.3008869234
 C          1.4270346551       -1.9973040327       -0.5424950788
 C          0.2018563294       -1.2988120502       -0.0097516958
 C          0.1142428156       -0.9060359084        1.3223231195
 C         -1.0221319552       -0.2726687040        1.7915766883
 C         -2.0875722222       -0.0122835464        0.9470120960
 C         -2.0097971081       -0.3969529531       -0.3843142428
 C         -0.8689519768       -1.0380024584       -0.8517772083
 H         -0.8074809044       -1.3258293130       -1.8929052110
 N         -3.0805424809       -0.1206514406       -1.2490252401
 S         -4.6336988622       -0.5376127621       -0.7671006524
 O         -4.6167497818       -1.6608056769        0.1404802149
 O         -5.3738478788       -0.7131095330       -1.9972111719
 C         -5.2314154549        0.9169069465        0.0671811331
 C         -5.6984930242        0.8241047944        1.3635368139
 C         -6.1696079966        1.9678461834        1.9894485959
 C         -6.1661636403        3.1769506118        1.3110524980
 C         -5.6963372255        3.2526137452        0.0081768444
 C         -5.2250862305        2.1129281579       -0.6234634470
 H         -4.8563344955        2.1290166808       -1.6355137329
 H         -5.6956834205        4.1947129225       -0.5160741723
 H         -6.5324985370        4.0656437774        1.8002972553
 H         -6.5362335601        1.9110908894        3.0018257622
 H         -5.6783779885       -0.1364521228        1.8535550412
 H         -2.9136692419       -0.3869700650       -2.2085013040
 H         -2.9730508621        0.4833765819        1.3098569800
 H         -1.0784845992        0.0243835531        2.8279308103
 H          0.9440782330       -1.1080838565        1.9830031790
 H          1.3581397271       -1.9842752257       -1.6423054051
 C          1.5139899733       -3.4563118453       -0.1177058898
 C          0.7146576294       -4.0521597828        0.9977514294
 C          0.3820787457       -4.3933529616       -0.4218893945
 H          0.6106199975       -5.3826773187       -0.7882581467
 H         -0.5201051176       -3.9667028716       -0.8355853152
 H          1.1971492397       -4.7945137199        1.6147497427
 H          0.0332017040       -3.4156319803        1.5394864339
 H          2.5163676825       -3.8519750261       -0.2472227710
