  62
        -98.94318601
 C         -2.6370084586        0.0346406592        0.1702856323
 C         -2.1599460234        0.8296997896       -0.9015478225
 C         -1.8485365001        2.2285395697       -0.5699074737
 C         -1.9866362331        2.6729707878        0.6910245502
 C         -1.7420725238        4.0773569724        1.1742936651
 C         -0.2722789666        4.3894992514        1.4842210682
 C          0.6270521928        4.5583110992        0.2593791279
 H          0.1672828172        5.2613288114       -0.4362603947
 H          1.5615736396        5.0039169787        0.6058960258
 C          0.9506754122        3.2473697863       -0.4699333752
 H          0.7534936401        2.3961931591        0.1866013700
 H          2.0173942374        3.2114322079       -0.7072468641
 C          0.1986785683        3.0365519135       -1.7841779708
 H          0.4690313472        2.0467357851       -2.1619114525
 H          0.5234964990        3.7799724504       -2.5168501204
 C         -1.3290160588        3.1078879159       -1.6674926306
 H         -1.6449719721        4.1392965477       -1.5068744415
 H         -1.7580064848        2.7510641574       -2.6075599533
 H         -0.2504788178        5.3193395722        2.0576402501
 H          0.1270424612        3.5941202311        2.1179933994
 H         -2.1184332017        4.7874473014        0.4369669045
 H         -2.3199678136        4.1909297737        2.0941624228
 O         -2.4152635774        1.8702796979        1.7016031027
 C         -2.7279874373        0.5435064808        1.4687731942
 O         -3.0961192474       -0.0780552677        2.4879248398
 O         -2.0098567163        0.4272152615       -2.0858950149
 C         -2.9941099360       -1.4384552658        0.0478814824
 C         -1.7847410337       -2.2961620808        0.3423900689
 C         -1.8909424851       -3.4378564682        1.1286101487
 C         -0.7709427909       -4.1916482502        1.4297943859
 C          0.4787545103       -3.8045573088        0.9805529581
 C          0.5933538086       -2.6684940870        0.1879187925
 C         -0.5385464765       -1.9421329338       -0.1503472290
 H         -0.4292838378       -1.0711189043       -0.7782038387
 N          1.8416736873       -2.2262704757       -0.2791693419
 S          2.0802081806       -0.5487803565       -0.3112113521
 O          1.4280078933        0.0607910793        0.8254300594
 O          1.7219145166       -0.0611492737       -1.6174739329
 C          3.8521429356       -0.4672248921       -0.1198829587
 C          4.6511809186       -0.6383935278       -1.2346910244
 C          6.0283593879       -0.6093649810       -1.0826001675
 C          6.5807347520       -0.4111514230        0.1742121547
 C          5.7662950171       -0.2380576653        1.2832771980
 C          4.3880589588       -0.2680014035        1.1382012629
 H          3.7143991420       -0.1299416956        1.9689009545
 H          6.1978389400       -0.0797982615        2.2584707824
 H          7.6527498292       -0.3881542891        0.2899277344
 H          6.6643671073       -0.7400413351       -1.9431031207
 H          4.1751050807       -0.7784772221       -2.1911828892
 H          2.6185415384       -2.7100239564        0.1506447157
 H          1.3588008662       -4.3718171155        1.2431842327
 H         -0.8672774432       -5.0748725214        2.0427382980
 H         -2.8558160981       -3.7196767169        1.5228862790
 H         -3.7344786841       -1.6350559731        0.8372168496
 C         -3.6038910842       -1.8273707790       -1.2842122289
 C         -4.5386793448       -2.9963100485       -1.3494347859
 C         -5.0665339638       -1.6038010385       -1.5172810490
 H         -5.3856341013       -1.2811272146       -2.4965801723
 H         -5.6393465818       -1.1739614759       -0.7081832004
 H         -4.4962092292       -3.6378412194       -2.2159852263
 H         -4.7643882929       -3.5131336226       -0.4291963006
 H         -2.9375956286       -1.6657297452       -2.1213020920
