  62
        -98.94477353
 C         -1.8638316338        0.7108813015       -0.4242122150
 C         -2.4868759096        0.1696127405        0.7265489323
 C         -3.5580359034       -0.8023714352        0.4702497072
 C         -3.8495875416       -1.1623384116       -0.7927155336
 C         -4.8965115124       -2.1588344737       -1.2109997773
 C         -6.3113762727       -1.5723455080       -1.3113128788
 C         -6.9829197581       -1.2611341695        0.0268488618
 H         -8.0367670669       -1.0666870256       -0.1821271544
 H         -6.9357738049       -2.1411441171        0.6691637739
 C         -6.3945201823       -0.0503108177        0.7645813182
 H         -7.2062173167        0.5844494129        1.1269724452
 H         -5.8055633259        0.5501582111        0.0674918539
 C         -5.5238551839       -0.4038731652        1.9704607757
 H         -5.1309250744        0.5241131694        2.3934448675
 H         -6.1351672703       -0.8895071199        2.7343068774
 C         -4.3342422595       -1.3166010332        1.6447304852
 H         -3.6622289244       -1.3270186100        2.5065588858
 H         -4.6794652272       -2.3335760110        1.4588391583
 H         -6.2715019181       -0.6653994921       -1.9190847827
 H         -6.9284155451       -2.3009816702       -1.8421946042
 H         -4.8983138014       -3.0011276524       -0.5184045439
 H         -4.6035693674       -2.5218196850       -2.1986795228
 O         -3.1851490604       -0.6616572294       -1.8689313387
 C         -2.1923462944        0.2929381392       -1.7131541879
 O         -1.6736534454        0.6739847961       -2.7833492092
 O         -2.1684694090        0.4765953536        1.9037961728
 C         -0.7660194946        1.7496087378       -0.2758836515
 C          0.4007950956        1.1537285027        0.4747240800
 C          1.0096602884        1.7627718779        1.5632303842
 C          2.0715859411        1.1487319414        2.2063278710
 C          2.5556799754       -0.0714312993        1.7737729818
 C          1.9681564889       -0.6779829226        0.6697803588
 C          0.9050520886       -0.0623448187        0.0283637870
 H          0.4453650993       -0.5382145612       -0.8296238861
 N          2.4671862660       -1.9060452152        0.2051435252
 S          4.1268203156       -2.0942205904        0.1078308189
 O          4.3374389402       -3.0531426432       -0.9542717424
 O          4.6494867425       -2.4649465416        1.3994998715
 C          4.7606172332       -0.4922621590       -0.3581683630
 C          5.6707967814        0.1501979298        0.4562538869
 C          6.1310617496        1.4046108647        0.0887964321
 C          5.6722718912        1.9932301847       -1.0791529619
 C          4.7606928029        1.3331086910       -1.8892672344
 C          4.2989711438        0.0779213009       -1.5280747817
 H          3.5922586193       -0.4604532216       -2.1396706641
 H          4.4037603305        1.7915787882       -2.7976176570
 H          6.0263427341        2.9718809220       -1.3622198892
 H          6.8413530308        1.9191909263        0.7155405010
 H          5.9966587635       -0.3424846765        1.3578238409
 H          2.0062257489       -2.2521890845       -0.6229367201
 H          3.3686743035       -0.5701119862        2.2760689116
 H          2.5261895307        1.6263815128        3.0605451984
 H          0.6462821436        2.7128975472        1.9176117205
 H         -0.4278319144        1.9797217129       -1.2968141296
 C         -1.3154693047        3.0129528617        0.3518192128
 C         -0.6814910009        4.3377658047        0.0554118685
 C         -2.0236863999        4.0035825606       -0.5209253586
 H         -2.8956656524        4.5055955674       -0.1292262385
 H         -2.0884488663        3.7785595159       -1.5758966489
 H         -0.6333259764        5.0746825073        0.8427338396
 H          0.1668140334        4.3476448690       -0.6118980053
 H         -1.7170821365        2.8449632626        1.3441995541
