  62
        -98.94658527
 C         -2.5025900077       -0.3276375980       -0.0036918500
 C         -2.3454274597       -1.4775070001       -0.8110388531
 C         -1.6644405351       -2.6125876338       -0.1814476722
 C         -1.2416874203       -2.5121858754        1.0920817241
 C         -0.4991266203       -3.5708458498        1.8611858429
 C          1.0112761331       -3.5700521103        1.5847283681
 C          1.4243161634       -4.1599679009        0.2350904089
 H          2.5019912387       -4.3298302298        0.2781162508
 H          0.9444845250       -5.1303012393        0.0993954268
 C          1.1186251241       -3.2545042077       -0.9659531142
 H          1.9852607963       -3.2339884797       -1.6315626516
 H          0.9586874716       -2.2334725214       -0.6117848712
 C         -0.0816596393       -3.6914509355       -1.8062637190
 H         -0.2356656413       -2.9496302089       -2.5941729913
 H          0.1343919115       -4.6506844740       -2.2831021194
 C         -1.3930062147       -3.8245127344       -1.0221457990
 H         -2.2118149221       -3.9176003326       -1.7403785999
 H         -1.3701421683       -4.7187753601       -0.3997142173
 H          1.4900688243       -4.1511970136        2.3767854960
 H          1.3734120104       -2.5406952086        1.6553641907
 H         -0.6574098565       -3.3551325012        2.9201193299
 H         -0.9152381977       -4.5542735575        1.6390970713
 O         -1.4612323034       -1.4083224112        1.8543050391
 C         -2.0529295036       -0.2782688288        1.3164787711
 O         -2.1448606435        0.6825456111        2.1076933539
 H         -0.4420789091        0.7409669493       -0.8977784610
 C         -0.7332547934        1.7509173986       -0.6526846445
 C         -2.0791717194        2.0549360261       -0.4913681790
 C         -2.4304633160        3.3678917967       -0.2061632086
 C         -1.4523457969        4.3343673497       -0.0435785203
 C         -0.1116555509        4.0069916872       -0.1271061569
 C          0.2493749782        2.6989158135       -0.4279436080
 N          1.6060165394        2.3068788565       -0.5099359217
 S          2.0988076877        1.0889837643        0.5622237851
 O          1.2902605487       -0.0863240425        0.3861210690
 O          2.1742832081        1.6352763131        1.9026530764
 C          3.7450661012        0.7836518949       -0.0496806570
 C          4.8166524285        1.4527779795        0.5096262840
 C          6.0868278677        1.2268512065        0.0029026778
 C          6.2622960351        0.3419821167       -1.0501547041
 C          5.1768717877       -0.3234871299       -1.6002987850
 C          3.9045549072       -0.1011711357       -1.0982055812
 H          3.0324449883       -0.6006742949       -1.4878132598
 H          5.3161839880       -1.0136245553       -2.4167190826
 H          7.2514446066        0.1669690186       -1.4427817353
 H          6.9328613620        1.7399544940        0.4308687110
 H          4.6351764974        2.1208263542        1.3361227275
 H          2.2233126068        3.0977218159       -0.3664442202
 H          0.6504353494        4.7528542784        0.0447311763
 H         -1.7383692740        5.3511554021        0.1799735174
 H         -3.4696497792        3.6327176248       -0.0961878507
 C         -3.0822875176        0.9333283378       -0.6180352529
 H         -3.2258784228        0.7039910450       -1.6849846312
 C         -4.4271920202        1.2636543429       -0.0046289750
 C         -5.4906081467        1.9371759223       -0.8186380922
 C         -5.6323701625        0.4921463215       -0.4494044357
 H         -6.3685887137        0.2151080072        0.2900366907
 H         -5.4842513443       -0.2517175124       -1.2185207107
 H         -6.1352699442        2.6535381489       -0.3319556300
 H         -5.2586617246        2.1752889983       -1.8456669044
 H         -4.3498706868        1.5108154327        1.0486129083
 O         -2.7461145753       -1.5463198159       -2.0057858782
