  62
        -98.94046860
 C         -2.3464496503       -0.8365942271       -0.1940948301
 C         -3.5905932356       -1.1367699755        0.4116707988
 C         -4.7602560758       -0.4613490570       -0.1602805455
 C         -4.6053917924        0.3639413358       -1.2116843210
 C         -5.7034706853        1.1094849472       -1.9206026563
 C         -6.0847329833        2.4380970729       -1.2532549665
 C         -6.8642560342        2.3076896254        0.0558269328
 H         -7.2505760079        3.2995855430        0.2985152181
 H         -7.7222959553        1.6525294648       -0.0974567594
 C         -6.0312791654        1.7995691250        1.2409337775
 H         -4.9683947462        1.9074783986        1.0119804243
 H         -6.2331430708        2.4168991967        2.1192259984
 C         -6.3080805846        0.3484789745        1.6346402479
 H         -7.3364739706        0.2549969648        1.9904354913
 H         -5.6413267432        0.0839726250        2.4593672126
 C         -6.0881404969       -0.6661402972        0.5046152471
 H         -6.0915856281       -1.6690893449        0.9382376544
 H         -6.8942271649       -0.5972825428       -0.2253089743
 H         -5.1732945470        3.0147656432       -1.0793933325
 H         -6.6999406634        2.9947806425       -1.9638488311
 H         -5.3343484066        1.3225719725       -2.9260521498
 H         -6.5857626917        0.4740999235       -2.0011755213
 O         -3.3943119162        0.6096102936       -1.7790305764
 C         -2.2340377344        0.0414972599       -1.2719301657
 O         -1.1953566466        0.3889344591       -1.8654210553
 O         -3.7161065218       -1.9278300717        1.3847233263
 C         -1.0879159534       -1.4734046017        0.3679386819
 C         -0.1654692908       -0.3958584239        0.8818860854
 C         -0.6353113636        0.4630160318        1.8736250415
 C          0.1636535472        1.4739113979        2.3695495740
 C          1.4516913303        1.6462219147        1.8929118733
 C          1.9280714001        0.7992314552        0.8997511634
 C          1.1223845854       -0.2179329507        0.4047391519
 H          1.5184730188       -0.8595203759       -0.3639171023
 N          3.2168271896        0.9768510672        0.3726851492
 S          4.0941553919       -0.3684813896       -0.1399858152
 O          3.6651101749       -0.7432831544       -1.4635987611
 O          4.0450534352       -1.4061986496        0.8659185327
 C          5.7287684346        0.3405280138       -0.2192690427
 C          6.0431256768        1.1471088022       -1.2970545095
 C          7.2994914330        1.7287659395       -1.3543201984
 C          8.2155985998        1.4958161769       -0.3389706337
 C          7.8866822028        0.6823803939        0.7347709875
 C          6.6309623163        0.0986195696        0.7991432886
 H          6.3327724574       -0.5458984047        1.6103176434
 H          8.6021058516        0.5008490708        1.5205556001
 H          9.1929665525        1.9494057557       -0.3867866155
 H          7.5594241593        2.3598767939       -2.1888495802
 H          5.3018773277        1.2919344412       -2.0658861968
 H          3.7852398160        1.6058631090        0.9230834445
 H          2.0779753279        2.4359821516        2.2792025779
 H         -0.2149618223        2.1307424489        3.1383492591
 H         -1.6408297995        0.3239361660        2.2475625827
 H         -1.4234263126       -2.0733153672        1.2272705992
 C         -0.4447953417       -2.3955545077       -0.6446186220
 C          0.4717006887       -3.4872204775       -0.1822030621
 C         -0.8851784424       -3.8253540973       -0.7208414924
 H         -0.9537866304       -4.2920044714       -1.6919875632
 H         -1.6450139696       -4.1488550441       -0.0244985368
 H          1.3421585727       -3.7150174420       -0.7794978694
 H          0.6378649785       -3.5815950024        0.8805298138
 H         -0.2074686809       -1.8961036745       -1.5778116469
