  62
        -98.94477584
 C         -1.8590508008       -0.6963425565        0.4215209919
 C         -2.4863119878       -0.1594148454       -0.7289563573
 C         -3.5632669581        0.8059695840       -0.4719807308
 C         -3.8552065133        1.1655125517        0.7909982722
 C         -4.9103943517        2.1529549787        1.2100064196
 C         -6.3194230490        1.5530914482        1.3137249742
 C         -6.9906959062        1.2332792876       -0.0225595409
 H         -8.0422653865        1.0291740045        0.1886258660
 H         -6.9531098448        2.1126731013       -0.6663127209
 C         -6.3924742304        0.0268843058       -0.7596329004
 H         -5.7963732840       -0.5668457170       -0.0628486305
 H         -7.1988558848       -0.6161878223       -1.1192466640
 C         -5.5276946145        0.3869506583       -1.9678021680
 H         -5.1266010603       -0.5377943842       -2.3901874523
 H         -6.1451940473        0.8654553451       -2.7311480732
 C         -4.3462730805        1.3114818440       -1.6457009295
 H         -4.7010235476        2.3252355072       -1.4604352995
 H         -3.6759920513        1.3272397798       -2.5087713661
 H         -6.2694207306        0.6474487609        1.9226483926
 H         -6.9424500847        2.2764288990        1.8448635833
 H         -4.9216171056        2.9944438634        0.5165559082
 H         -4.6191132164        2.5198697463        2.1966976218
 O         -3.1842839279        0.6721359190        1.8665832928
 C         -2.1866301246       -0.2773084237        1.7103326085
 O         -1.6635813646       -0.6536467638        2.7800742944
 O         -2.1677818053       -0.4656441255       -1.9063505684
 C         -0.7598833136       -1.7336682560        0.2735685488
 C          0.4057026043       -1.1389478547       -0.4796941793
 C          1.0107600181       -1.7485006887       -1.5700227393
 C          2.0726504249       -1.1363959694       -2.2149250980
 C          2.5606777334        0.0820356674       -1.7820765269
 C          1.9766947819        0.6893704591       -0.6766312406
 C          0.9132596293        0.0759223554       -0.0336802400
 H          0.4562288976        0.5520911129        0.8255485554
 N          2.4808552702        1.9156115600       -0.2118324196
 S          4.1420971691        2.0889297548       -0.1069246546
 O          4.3573103086        3.0460324665        0.9558341009
 O          4.6735933895        2.4543275455       -1.3964818569
 C          4.7570509098        0.4806061308        0.3621974167
 C          5.6514696597       -0.1796184915       -0.4553680756
 C          6.0940633173       -1.4396045652       -0.0854576919
 C          5.6331687879       -2.0161862528        1.0876376974
 C          4.7374032386       -1.3383975606        1.9007049637
 C          4.2938012722       -0.0774103100        1.5373116602
 H          3.6000921891        0.4751722673        2.1510983312
 H          4.3789632720       -1.7874957340        2.8131518014
 H          5.9731643849       -2.9993007025        1.3723902542
 H          6.7922240420       -1.9678659836       -0.7144124174
 H          5.9801650774        0.3042413011       -1.3606418546
 H          2.0199557140        2.2630330299        0.6158171519
 H          3.3745364673        0.5786114829       -2.2850187379
 H          2.5246201500       -1.6146144836       -3.0702156722
 H          0.6447527346       -2.6976503810       -1.9242290359
 H         -0.4201500290       -1.9612646528        1.2945536836
 C         -1.3095683474       -2.9987932063       -0.3503925740
 C         -0.6750210402       -4.3225065891       -0.0505406256
 C         -2.0169996645       -3.9870915802        0.5256425819
 H         -2.8889483558       -4.4905776870        0.1357255611
 H         -2.0815553230       -3.7589120814        1.5799633768
 H         -0.6271869419       -5.0617491949       -0.8356782975
 H          0.1737990025       -4.3300878001        0.6161451169
 H         -1.7120519569       -2.8336946517       -1.3428982425
