  62
        -98.93965383
 C          1.6961962884        1.2287620395        0.1572203169
 C          1.8106863688       -0.0393457175        0.7835493334
 C          2.8237208317       -0.9463735212        0.2353738885
 C          3.5430694727       -0.5672757751       -0.8364486584
 C          4.5908614736       -1.3888903982       -1.5372406667
 C          5.9814891423       -1.3094507051       -0.8928433260
 C          6.1251994292       -2.0538540040        0.4351340406
 H          5.7748450895       -3.0795236126        0.3154226240
 H          7.1919358045       -2.0991362056        0.6635524529
 C          5.3962792212       -1.3922790576        1.6129843231
 H          5.1580908383       -0.3568904063        1.3585173423
 H          6.0587626088       -1.3631839669        2.4811070004
 C          4.1141092584       -2.1029709094        2.0461566416
 H          4.3579146110       -3.0970707028        2.4276256756
 H          3.6655337357       -1.5304357961        2.8621566443
 C          3.0640862410       -2.2492891577        0.9366713151
 H          3.3734144472       -3.0145074049        0.2251369107
 H          2.1242446312       -2.5586571501        1.3999719846
 H          6.2421828091       -0.2579651157       -0.7513905512
 H          6.6946940052       -1.7351857226       -1.6024582683
 H          4.2703403176       -2.4299035989       -1.5843805840
 H          4.6611950086       -0.9993725421       -2.5550899385
 O          3.3746827136        0.6385625904       -1.4363034334
 C          2.4605487510        1.5723397297       -0.9587843960
 O          2.4417013263        2.6292173712       -1.6143386382
 H         -1.6249598468        1.3626395519        1.9265670829
 C         -1.7430454414        1.4534305964        0.8554803151
 C         -0.6723765551        1.8810502129        0.0857526534
 C         -0.8298461911        1.9597098065       -1.2950612760
 C         -2.0384802488        1.6330571964       -1.8821496578
 C         -3.1044980877        1.2017394799       -1.1110325716
 C         -2.9501676348        1.1028596504        0.2648836700
 N         -4.0136989749        0.6091388174        1.0430854644
 S         -4.6859502575       -0.8371330389        0.5231722242
 O         -5.6786990671       -0.5681371694       -0.4869255882
 O         -5.1702227868       -1.4872785126        1.7204428971
 C         -3.3277595013       -1.7471297548       -0.1953196940
 C         -2.2025099577       -1.9650334312        0.5746941456
 C         -1.1204800499       -2.6203512656        0.0117785962
 C         -1.1830911430       -3.0527453600       -1.3037255494
 C         -2.3249747344       -2.8386136027       -2.0601321471
 C         -3.4067628758       -2.1739937863       -1.5051741231
 H         -4.3070692442       -1.9730944611       -2.0628290627
 H         -2.3713820625       -3.1790827803       -3.0820533951
 H         -0.3351958820       -3.5573084379       -1.7396361344
 H         -0.2288670578       -2.7677674140        0.6000134547
 H         -2.1685376251       -1.6218036188        1.5960873126
 H         -3.8061340598        0.5673329901        2.0307667540
 H         -4.0485674978        0.9286230306       -1.5542031811
 H         -2.1500913685        1.7046933547       -2.9533151954
 H          0.0095910906        2.2711550871       -1.8987875032
 C          0.6554804368        2.1717711106        0.7361886390
 H          0.5724017625        1.8793369568        1.7950437409
 C          1.0554548378        3.6387349840        0.7026465973
 C          0.3250831316        4.6826209457       -0.0827731617
 C          0.2028783284        4.6516871460        1.4091435366
 H          0.6848875435        5.4241915829        1.9889054710
 H         -0.7331217401        4.3072596295        1.8236400563
 H          0.9135464026        5.4624429329       -0.5415601112
 H         -0.5299182989        4.3833155693       -0.6679475803
 H          2.1291299417        3.7701626326        0.7834280466
 O          1.0974365927       -0.3920654665        1.7604942801
