  62
        -98.94016405
 C          0.7869783995        1.6904829305        0.6215675181
 C          1.5699439387        1.5859319353       -0.5502574117
 C          2.7602165691        0.7157587990       -0.4736726290
 C          3.0086843859        0.0560230297        0.6725767072
 C          4.1661842967       -0.8594820491        0.9662512508
 C          4.0110625638       -2.2599353599        0.3422242909
 C          3.3125705206       -2.2931459292       -1.0158612948
 H          3.0714973833       -3.3337576433       -1.2453982472
 H          2.3662600346       -1.7526643664       -0.9473496052
 C          4.1375941737       -1.7435999280       -2.1776598920
 H          4.9957878971       -2.3994920552       -2.3436770844
 H          3.5140492947       -1.7775384569       -3.0744879188
 C          4.6609948006       -0.3192472924       -2.0048128520
 H          5.1421724889       -0.0315185945       -2.9445009379
 H          5.4321092921       -0.2892058424       -1.2398782952
 C          3.5909036159        0.7351114497       -1.7333364418
 H          2.8677974486        0.7287151016       -2.5566484367
 H          4.0643323287        1.7243792353       -1.7699684627
 H          3.4199922006       -2.8642381693        1.0314186203
 H          4.9990570676       -2.7144003874        0.2560654175
 H          5.0866805054       -0.3821161763        0.6400457900
 H          4.2173243594       -0.9644202056        2.0519883972
 O          2.1793267589        0.1266027449        1.7528748158
 C          1.0666586847        0.9448602797        1.7648770010
 O          0.4159746550        0.9200543264        2.8306736822
 O          1.3010785160        2.1998769463       -1.6160938696
 C         -0.4130560989        2.6187015176        0.6492075526
 C         -1.4254195608        2.1967613295       -0.3879447194
 C         -2.0025489256        3.0686707342       -1.3011286947
 C         -2.9415887622        2.6075567052       -2.2077909757
 C         -3.3435236301        1.2850750299       -2.2030973807
 C         -2.7776304531        0.4048976223       -1.2864363180
 C         -1.8154920628        0.8631377841       -0.4025861438
 H         -1.3709777481        0.1778980090        0.3037818114
 N         -3.1610626966       -0.9433688205       -1.2505834728
 S         -3.2922861443       -1.7571237426        0.2072769034
 O         -4.2816786529       -2.7837016983       -0.0474242618
 O         -3.5782247432       -0.8553691803        1.2972057689
 C         -1.7139052033       -2.5506403219        0.4237643148
 C         -0.8752094079       -2.1849948003        1.4568509431
 C          0.3272864964       -2.8572171275        1.6133578764
 C          0.6638585258       -3.8825551408        0.7439811414
 C         -0.1870275920       -4.2352091620       -0.2927243856
 C         -1.3869844741       -3.5644345039       -0.4563968008
 H         -2.0844897165       -3.8173995982       -1.2374269644
 H          0.0809865668       -5.0313694052       -0.9682693721
 H          1.5920828047       -4.4151761195        0.8782985076
 H          0.9893931770       -2.5658171556        2.4139292368
 H         -1.1623249790       -1.3854502281        2.1240484190
 H         -3.9052687888       -1.1911932111       -1.8860932139
 H         -4.0877325285        0.9322233005       -2.9008179267
 H         -3.3765934571        3.2922855007       -2.9200510540
 H         -1.7149019434        4.1069482517       -1.3085905675
 H         -0.8788403957        2.4842895496        1.6374502138
 C          0.0369551184        4.0584631851        0.5139688998
 C         -0.7788888792        5.1627982241        1.1134533418
 C          0.5314838410        4.7788397690        1.7307459826
 H          1.3691154892        5.4522033795        1.6276326325
 H          0.5190589009        4.2380732033        2.6662922981
 H         -0.8398040851        6.1041365619        0.5884493436
 H         -1.6837030406        4.8889008763        1.6351352027
 H          0.5497406364        4.2480245995       -0.4218438408
