  62
        -98.93746404
 C         -2.1913019953       -0.8295159237       -0.1104676056
 C         -2.9275971766       -0.1479548354        0.8851646618
 C         -3.7003898795        1.0244975274        0.4418050795
 C         -3.6476139458        1.3976930324       -0.8486217470
 C         -4.3107962261        2.5787190630       -1.5127881337
 C         -5.7636056620        2.8877779829       -1.1270676139
 C         -6.6223580017        1.6588137453       -0.7950790109
 H         -7.5462031094        1.7044747114       -1.3745822752
 H         -6.0992870542        0.7465955575       -1.0870402990
 C         -7.0010760050        1.5776330290        0.6856351953
 H         -7.8763535703        0.9319673966        0.7896702281
 H         -7.2876435475        2.5739618082        1.0293303815
 C         -5.9180488038        1.0225326776        1.6098359935
 H         -5.7827266375       -0.0461279579        1.4220266302
 H         -6.2693943124        1.1240773734        2.6395509302
 C         -4.5397178316        1.6936180007        1.4922071864
 H         -4.6351519760        2.7618383154        1.3127769508
 H         -4.0123097843        1.5458847070        2.4389094805
 H         -5.7786981241        3.5708752427       -0.2789026505
 H         -6.2049751967        3.4238055141       -1.9689719698
 H         -3.6952265698        3.4634898271       -1.3251943437
 H         -4.2533766204        2.3693150706       -2.5836170681
 O         -2.9030686896        0.7244270596       -1.7711953237
 C         -2.1633648057       -0.3989450187       -1.4361227096
 O         -1.5390826522       -0.9057243897       -2.3860928871
 H          0.0365899587        0.1289840903        0.8366945860
 C          0.6566474205       -0.6194771273        0.3573559293
 C          0.0842285152       -1.8286118548       -0.0191293615
 C          0.8958346837       -2.7847531975       -0.6149653185
 C          2.2354631077       -2.5221229691       -0.8453625614
 C          2.7944816722       -1.3093820264       -0.4884936873
 C          1.9959950968       -0.3506673989        0.1219979063
 N          2.5504572359        0.8905456379        0.4799328456
 S          3.9763212752        0.9035341644        1.3664624228
 O          4.1019593540       -0.2810761842        2.1835717042
 O          3.9733098555        2.1698781436        2.0661580043
 C          5.2531132845        0.9299205510        0.1260898264
 C          6.2385222917       -0.0377574504        0.1299987883
 C          7.2277998861        0.0097107201       -0.8400169224
 C          7.2145496358        1.0189382522       -1.7905068098
 C          6.2190315766        1.9847278559       -1.7790191032
 C          5.2278738715        1.9436241056       -0.8115872718
 H          4.4391306994        2.6760428568       -0.7659999346
 H          6.2115640729        2.7678069579       -2.5200350360
 H          7.9844879496        1.0535978783       -2.5450171225
 H          8.0027098569       -0.7397992326       -0.8506314342
 H          6.2051898623       -0.8062120112        0.8857955192
 H          1.8812589606        1.5359184625        0.8736001006
 H          3.8349615835       -1.0989696725       -0.6740669254
 H          2.8522668524       -3.2726358338       -1.3155486402
 H          0.4792015500       -3.7355669064       -0.9036380316
 C         -1.3792636040       -2.0510542170        0.2763437867
 H         -1.4927463870       -2.1443978131        1.3674521883
 C         -1.9491417464       -3.2917595411       -0.3791758955
 C         -1.8286908109       -4.6267232828        0.2912454047
 C         -3.1576132356       -3.9377302999        0.2272035432
 H         -3.9161533653       -4.3344451607       -0.4307863547
 H         -3.5516727972       -3.4990872518        1.1326056377
 H         -1.3234770481       -4.6638658117        1.2446329154
 H         -1.6769193880       -5.5009505668       -0.3236620281
 H         -1.8926368511       -3.2520731452       -1.4612234126
 O         -2.9270828168       -0.4928146379        2.0986649713
