  62
        -98.94183629
 C         -1.8743069836       -1.2418290775       -0.3220145252
 C         -0.7925851586       -1.6468818470       -1.1380181394
 C          0.2309237176       -2.4719407597       -0.4891386938
 C          0.0914003453       -2.8060945680        0.8061380307
 C          1.0564725040       -3.6245291178        1.6205716196
 C          2.4119357955       -2.9420903065        1.8960567328
 C          3.5259110395       -3.3390872492        0.9183079805
 H          4.4568009180       -3.4522213310        1.4777927436
 H          3.2902277784       -4.3188741302        0.5003981837
 C          3.8045872551       -2.3517536221       -0.2196081826
 H          4.4078395209       -2.8670263159       -0.9701652891
 H          4.3964857976       -1.5198705646        0.1685456050
 C          2.5735944789       -1.7510851675       -0.8974400987
 H          2.1282494357       -0.9991654523       -0.2397790842
 H          2.8997316246       -1.2204645501       -1.7945403273
 C          1.4778719347       -2.7698175016       -1.2694749743
 H          1.2210131687       -2.6709066084       -2.3259518087
 H          1.8157365817       -3.7885582530       -1.0871026708
 H          2.7192567766       -3.2352990299        2.9016244330
 H          2.2690143474       -1.8601476837        1.9064750375
 H          0.5529694155       -3.8164401658        2.5701466773
 H          1.2210813176       -4.5840025867        1.1253015396
 O         -0.9902853841       -2.4398757230        1.5439490020
 C         -1.9587622756       -1.5958143055        1.0241958990
 O         -2.8375114407       -1.2581450002        1.8422906736
 H         -0.5676761418        0.9219589658       -0.3440769365
 C         -1.3862208847        1.5059825483        0.0503314652
 C         -2.6892437661        1.0616069425       -0.1454724692
 C         -3.7333331193        1.8229040437        0.3603616722
 C         -3.4689042075        2.9765837498        1.0800848328
 C         -2.1699615216        3.3822735988        1.3219964607
 C         -1.1166557531        2.6353293747        0.8028881969
 N          0.2148576515        3.0260946317        1.0124479222
 S          1.4697230602        1.9321719161        1.1777674949
 O          1.0062356138        0.5992493860        1.4872812742
 O          2.3605639730        2.5288641028        2.1524515484
 C          2.2993435559        1.9344292965       -0.4006817734
 C          1.6496922197        2.3119773150       -1.5574378932
 C          2.3422585896        2.2650784164       -2.7583334419
 C          3.6627982762        1.8463207480       -2.7838800209
 C          4.3047851592        1.4768737248       -1.6117673568
 C          3.6180305299        1.5211386744       -0.4098618246
 H          4.0778253904        1.2490271440        0.5268129552
 H          5.3328752487        1.1529312432       -1.6305223255
 H          4.1943437649        1.8089354417       -3.7216347813
 H          1.8429904444        2.5532454419       -3.6695096441
 H          0.6223334783        2.6348297362       -1.5175382379
 H          0.3357814456        3.8068587096        1.6399724591
 H         -1.9669419923        4.2644120732        1.9099614814
 H         -4.2879784883        3.5573156665        1.4765462303
 H         -4.7519039196        1.5060522670        0.2076227510
 C         -2.8732209483       -0.2440603373       -0.8818967864
 H         -2.5793092015       -0.0947864511       -1.9317791998
 C         -4.2875612835       -0.7779400658       -0.8406065176
 C         -5.3004237139       -0.3036174159       -1.8387942606
 C         -4.7479245691       -1.6929155448       -1.9344938361
 H         -5.3866072627       -2.5238662937       -1.6755625932
 H         -4.0454332338       -1.9124931520       -2.7251243252
 H         -6.3235991702       -0.1818192977       -1.5168242839
 H         -4.9784696847        0.4199967809       -2.5722310463
 H         -4.6206246235       -0.9960406991        0.1675907168
 O         -0.6790037196       -1.3149376673       -2.3499872537
