  62
        -98.93651446
 C         -1.2216681412       -0.5798548734        0.5860753426
 C         -2.0650561032       -0.6143121564       -0.5507037258
 C         -3.0770209930        0.4488014747       -0.6184957719
 C         -3.1026020147        1.4131527444        0.3185703092
 C         -4.0577047780        2.5750983366        0.3676740727
 C         -5.4094168137        2.2462369295        1.0166780388
 C         -6.3401465315        1.3717510629        0.1753491644
 H         -7.3231158520        1.4029170694        0.6495372597
 H         -6.4442870202        1.8073215189       -0.8188413935
 C         -5.8960430565       -0.0927214373        0.0545423030
 H         -6.7528140526       -0.7480831091        0.2262291215
 H         -5.1612727272       -0.3152343620        0.8316469872
 C         -5.3049471167       -0.4657961721       -1.3050175023
 H         -4.9894742907       -1.5113587509       -1.2664453964
 H         -6.0725702232       -0.3729303978       -2.0763518803
 C         -4.0924482927        0.3786504189       -1.7188036142
 H         -3.6158089675       -0.1001424049       -2.5777580951
 H         -4.4108195111        1.3798037285       -2.0091166558
 H         -5.2257954112        1.7630538640        1.9791524431
 H         -5.9149954960        3.1947021563        1.2123700496
 H         -4.2191754752        2.9586585057       -0.6403151151
 H         -3.5694368052        3.3529631411        0.9591521394
 O         -2.2188776357        1.4544003495        1.3523696003
 C         -1.2698176686        0.4585710668        1.5149296625
 O         -0.5309484503        0.6088992899        2.5113392538
 O         -1.9807261720       -1.4757596831       -1.4612560875
 C         -0.1639324170       -1.6579572317        0.7876732758
 C          0.7265029136       -1.6795885067       -0.4339621271
 C          1.0791139657       -2.7594120051       -1.2321915981
 C          1.9434728321       -2.5909121843       -2.3031054961
 C          2.4994105751       -1.3609621452       -2.5958304674
 C          2.1516593745       -0.2682845337       -1.8091546710
 C          1.2731802966       -0.4387244829       -0.7551354520
 H          0.9864217210        0.4262179016       -0.1768030287
 N          2.6811882803        1.0071770932       -2.0543651592
 S          2.9579718288        2.0459486204       -0.7744729013
 O          1.7212233483        2.6396882648       -0.3304315781
 O          3.9510820927        2.9707880180       -1.2804920581
 C          3.6832776679        1.0281489306        0.4998316181
 C          3.0079374846        0.7690591304        1.6747563594
 C          3.5972746250       -0.0646054114        2.6133114103
 C          4.8423849609       -0.6197444000        2.3647495462
 C          5.5128356066       -0.3412939884        1.1830507147
 C          4.9288298203        0.4881730886        0.2406540297
 H          5.4230182110        0.7369839366       -0.6843406840
 H          6.4837030110       -0.7697017530        0.9935694288
 H          5.2918173324       -1.2707749259        3.0978375540
 H          3.0691205256       -0.2769440892        3.5294240960
 H          2.0346546555        1.2044388337        1.8454200153
 H          3.4133619744        1.0452224047       -2.7475616952
 H          3.1789631140       -1.2402411518       -3.4250658969
 H          2.1936721766       -3.4438289280       -2.9156670972
 H          0.6774361727       -3.7399930453       -1.0555047915
 H          0.4688248525       -1.2872958067        1.6124807370
 C         -0.8474052570       -2.9076674017        1.3213088604
 C         -1.4529590631       -3.9943627335        0.4903881229
 C         -0.2542726950       -4.2847160467        1.3456112462
 H         -0.4063568997       -4.8750315403        2.2374132060
 H          0.7046712283       -4.4451281976        0.8820386807
 H         -2.4098678789       -4.3875607116        0.8030909880
 H         -1.3540189579       -3.9240658310       -0.5801711661
 H         -1.4140532393       -2.6336524007        2.2099095112
