  62
        -98.93920755
 C          2.1223236642        1.0448288605        0.0643103841
 C          2.8422715815        0.3187695542        1.0383994781
 C          3.5828860186       -0.8708539591        0.5754144843
 C          3.4968012196       -1.2202599746       -0.7218770375
 C          4.1832771721       -2.3615642777       -1.4236442275
 C          5.6707712998       -2.0809234884       -1.6960779356
 C          6.4271966752       -1.4323184157       -0.5394152850
 H          7.4264937760       -1.1746244450       -0.8998676812
 H          5.9312522244       -0.4992822041       -0.2657099927
 C          6.5904306970       -2.3048019079        0.7027886648
 H          7.1356735590       -3.2121835328        0.4335468604
 H          7.2048306803       -1.7465069178        1.4137010379
 C          5.2961026262       -2.7109004574        1.4096837016
 H          4.7876785196       -3.5046714632        0.8689019756
 H          5.5734105225       -3.1271228968        2.3826955381
 C          4.3327984462       -1.5614035635        1.6895431993
 H          3.5642722470       -1.9149695397        2.3882050372
 H          4.8669145831       -0.7695915627        2.2270197354
 H          5.7333313406       -1.4063197010       -2.5533114533
 H          6.1540942495       -3.0201347823       -1.9699466404
 H          4.0572148009       -3.2781042785       -0.8545984617
 H          3.6724212615       -2.4930625497       -2.3802001715
 O          2.7586555475       -0.5084224666       -1.6213354082
 C          2.0566188484        0.6285049426       -1.2649906789
 O          1.4309458775        1.1639416834       -2.1990586028
 H         -0.0718244873        0.2080004663        1.3207099454
 C         -0.6946471968        0.8922761727        0.7565187083
 C         -0.1258294525        2.0515350963        0.2417435135
 C         -0.9341241982        2.9199257231       -0.4785980309
 C         -2.2692206371        2.6198802206       -0.6903861284
 C         -2.8274568870        1.4606819475       -0.1846738797
 C         -2.0296868902        0.5890710780        0.5456847552
 N         -2.5912149275       -0.5888805542        1.0759643159
 S         -3.3599668917       -1.6243299102       -0.0036580363
 O         -3.2881794124       -2.9315512913        0.6137419193
 O         -2.8093366802       -1.5112376569       -1.3347005386
 C         -5.0517145452       -1.0694725614        0.0121218237
 C         -5.6705747630       -0.7159976089       -1.1707788715
 C         -6.9912573259       -0.2956162152       -1.1359557889
 C         -7.6653582065       -0.2376091628        0.0742136645
 C         -7.0295533688       -0.5978701078        1.2532291841
 C         -5.7100941701       -1.0201524389        1.2254595650
 H         -5.1801459411       -1.3122627821        2.1165934261
 H         -7.5570330902       -0.5511411502        2.1922618671
 H         -8.6924848878        0.0905307381        0.0983835740
 H         -7.4867824922       -0.0153015449       -2.0515551898
 H         -5.1032820312       -0.7713415504       -2.0863400456
 H         -1.9456691900       -1.1121329562        1.6508344382
 H         -3.8645000524        1.2210632214       -0.3542816015
 H         -2.8835991531        3.2993329228       -1.2610932084
 H         -0.5167852277        3.8252234017       -0.8872110382
 C          1.3457369940        2.2797083062        0.4859125864
 H          1.5033060466        2.3671616038        1.5712491848
 C          1.8958420839        3.5173165082       -0.1893470823
 C          1.7376347953        4.8597803398        0.4579288265
 C          3.0838314345        4.2035945641        0.4131339455
 H          3.8355186412        4.6074793163       -0.2482728536
 H          3.4843221161        3.7905962824        1.3275490810
 H          1.5667638186        5.7192364211       -0.1723416912
 H          1.2247291175        4.8986077610        1.4068558748
 H          1.8481880536        3.4577812779       -1.2708005286
 O          2.8701816264        0.6464182408        2.2569424962
