  62
        -98.94518327
 C         -2.0673420405       -1.4552515801        0.0031597696
 C         -1.8989587305       -0.4813262699       -1.0107818502
 C         -2.7799157006        0.6936446001       -0.9248014400
 C         -3.6674864805        0.7880077499        0.0811534800
 C         -4.5815699606        1.9547200498        0.3152011203
 C         -3.9305054106        2.9982799796        1.2336673905
 C         -2.5106984106        3.3881150197        0.8217416105
 H         -2.1735070706        4.1537476996        1.5235695807
 H         -1.8526338305        2.5245872697        0.9430334904
 C         -2.3889528606        3.9185018800       -0.6135075194
 H         -1.7559213906        4.8079739300       -0.6077074292
 H         -3.3698004906        4.2239625901       -0.9797720193
 C         -1.7637118606        2.9326462602       -1.6020394496
 H         -1.5247094206        3.4768929204       -2.5195151495
 H         -0.8265648906        2.5470189802       -1.1931622897
 C         -2.6410769106        1.7383987503       -1.9963589398
 H         -3.6228764306        2.0902735303       -2.3197393697
 H         -2.1605890806        1.2382725105       -2.8422928299
 H         -3.8934455105        2.5917141494        2.2469267704
 H         -4.5646452606        3.8867065496        1.2476513407
 H         -4.8376992806        2.4064136900       -0.6412582796
 H         -5.4938190205        1.5865650497        0.7877722302
 O         -3.8006598005       -0.1654009003        1.0376574099
 C         -3.0090956305       -1.2990333703        1.0258591796
 O         -3.2369122005       -2.0900375405        1.9628152395
 H          0.8514538095       -1.7034543598       -1.3568210105
 C          1.1121942995       -1.8900138800       -0.3267706606
 C          0.1582019295       -2.4129879602        0.5340472893
 C          0.4997749395       -2.6045372304        1.8686831993
 C          1.7695423496       -2.2952818705        2.3226750393
 C          2.7221129795       -1.7835790403        1.4591142194
 C          2.3833887995       -1.5664217601        0.1293311095
 N          3.3334558495       -1.0455513399       -0.7679295705
 S          4.2244092395        0.3108126001       -0.3718908902
 O          4.8915003594        0.6914129203       -1.5953671601
 O          5.0757692495        0.0071743199        0.7511579797
 C          3.0460141194        1.5681257700        0.0880609601
 C          2.6237285994        2.4619944602       -0.8758730697
 C          1.7030458394        3.4374950501       -0.5300523495
 C          1.2104922594        3.4924214898        0.7649189205
 C          1.6355777295        2.5808516196        1.7184929703
 C          2.5659850995        1.6103325997        1.3819351801
 H          2.9300029195        0.8973375596        2.1028877799
 H          1.2478792395        2.6234519694        2.7238530703
 H          0.4908277194        4.2496594397        1.0320933707
 H          1.3717186994        4.1491288602       -1.2691775394
 H          3.0351730594        2.3873030004       -1.8695907398
 H          2.9817645595       -0.9619209397       -1.7110429604
 H          3.7179261295       -1.5451012604        1.7964992094
 H          2.0234598096       -2.4590383407        3.3591890193
 H         -0.2448042604       -2.9913090106        2.5500249992
 C         -1.2392880005       -2.7310917001        0.0586532493
 H         -1.7162288705       -3.3578760303        0.8235432792
 C         -1.2506256405       -3.4887139198       -1.2542219109
 C         -0.8246394405       -4.9248304298       -1.2661745112
 C         -2.2666327105       -4.5686255098       -1.4657100711
 H         -2.6970601205       -4.6856874496       -2.4490501011
 H         -2.9586874505       -4.7697509300       -0.6607370711
 H         -0.2624718305       -5.2895499896       -2.1121745612
 H         -0.5378329505       -5.3677644700       -0.3242614512
 H         -0.9957163305       -2.8800100097       -2.1114616407
 O         -1.0683688806       -0.5696971497       -1.9541443503
