  62
        -98.94142670
 C         -2.4124496073       -1.0605835435       -0.5656742984
 C         -3.4867294863       -0.5958719640        0.2392216199
 C         -4.0202147567        0.7299717242       -0.0854742038
 C         -3.4934565703        1.4255135377       -1.1091426070
 C         -3.9360948448        2.7840688655       -1.5800573651
 C         -3.3197150090        3.9473350211       -0.7909051606
 C         -3.8699295631        4.1366944669        0.6232884327
 H         -3.5193304273        5.1087864908        0.9755078311
 H         -4.9590276458        4.1762824346        0.5863428115
 C         -3.4255588699        3.0615052294        1.6250876308
 H         -2.5571163846        2.5285505910        1.2287248514
 H         -3.1048796990        3.5393894120        2.5537603996
 C         -4.5092131577        2.0462208534        1.9894482643
 H         -4.0722449135        1.3110836472        2.6701702692
 H         -5.3218347626        2.5520356963        2.5155361873
 C         -5.0987020543        1.2914346735        0.7909021853
 H         -5.6883081872        0.4534506838        1.1704222853
 H         -5.7513855676        1.9484065495        0.2165890102
 H         -2.2371932073        3.8041056986       -0.7436993192
 H         -3.5096561214        4.8621260196       -1.3571317737
 H         -3.6210966479        2.8697788887       -2.6222005153
 H         -5.0236271431        2.8501677461       -1.5380030933
 O         -2.4771667330        0.9419056767       -1.8683634102
 C         -1.8933649132       -0.2894487475       -1.6056547557
 O         -0.9509717301       -0.5595937882       -2.3784551191
 O         -3.9826765769       -1.2675721661        1.1824697973
 C         -1.8316269471       -2.4191369008       -0.2045824747
 C         -0.5802293678       -2.2303340638        0.6196775766
 C         -0.5713480911       -2.5202709440        1.9791058469
 C          0.5620092308       -2.2948395606        2.7411292714
 C          1.7071884259       -1.7727650037        2.1663883347
 C          1.7035710253       -1.4711165015        0.8110231583
 C          0.5720605134       -1.7111364240        0.0463011110
 H          0.5711318449       -1.4537901295       -1.0027086064
 N          2.8628629515       -0.9185350307        0.2109599539
 S          3.2402296452        0.6518864620        0.7162587593
 O          3.4329937438        0.6398419761        2.1437111743
 O          2.2584842845        1.5923409864        0.2149056950
 C          4.8020822123        0.8926001462       -0.1058453674
 C          4.8327638268        1.5289604001       -1.3314448865
 C          6.0491964405        1.6773408324       -1.9792974517
 C          7.2065272763        1.1855751441       -1.3948784793
 C          7.1591200498        0.5480630855       -0.1639858486
 C          5.9463566295        0.3971441259        0.4889516783
 H          5.8611029544       -0.0843809044        1.4487860905
 H          8.0615733226        0.1685958132        0.2873168176
 H          8.1512991537        1.3023367436       -1.9018459722
 H          6.0884149026        2.1741732428       -2.9354122731
 H          3.9091507235        1.9025661581       -1.7448937528
 H          2.7511609150       -0.8855995902       -0.7958484323
 H          2.5872286533       -1.5703189911        2.7537468639
 H          0.5527112800       -2.5242122621        3.7960279011
 H         -1.4694692753       -2.9048344766        2.4407258598
 H         -2.5869772470       -2.8902260608        0.4386559791
 C         -1.5916622411       -3.3179319334       -1.4005441147
 C         -1.4560890083       -4.7939113763       -1.1806349732
 C         -2.6791544468       -4.2449259772       -1.8502258496
 H         -2.8083144845       -4.4095658351       -2.9093837459
 H         -3.6052481904       -4.2360220364       -1.2941957987
 H         -0.7428140900       -5.3397018328       -1.7786984905
 H         -1.5530135861       -5.1581666140       -0.1691444920
 H         -0.9807889982       -2.8640257679       -2.1695353035
