  62
        -98.93632664
 C         -1.9932235516       -1.5160551136       -0.0072662579
 C         -1.7334528499       -0.1871250471       -0.4170867992
 C         -2.9128362654        0.6596856319       -0.6732302190
 C         -4.1447887404        0.1536599657       -0.4995360994
 C         -5.4733435165        0.8276376078       -0.7316976960
 C         -5.6322704153        2.2653349818       -0.2141798802
 C         -4.8163643137        2.6014246324        1.0430094792
 H         -5.4774093468        3.0604896630        1.7806009843
 H         -4.4184881447        1.6878587215        1.4881510185
 C         -3.6705683057        3.5788566774        0.7685425340
 H         -4.0359634660        4.3649308499        0.1039632931
 H         -3.3830539836        4.0543926763        1.7092884151
 C         -2.4064199808        2.9641558453        0.1677737557
 H         -1.7343969227        3.7829776995       -0.1006615061
 H         -1.8927654838        2.3590861931        0.9198173051
 C         -2.6259572157        2.0794892332       -1.0699690337
 H         -1.6911261202        2.0529919127       -1.6368501456
 H         -3.4075583323        2.4829557802       -1.7093188263
 H         -5.3686113311        2.9672244568       -1.0043133896
 H         -6.6939516654        2.4104905462       -0.0077137369
 H         -6.2083967789        0.1801454114       -0.2477634686
 H         -5.6838356945        0.8077116528       -1.8049015311
 O         -4.3505652771       -1.1287397227       -0.0847164033
 C         -3.2951130744       -1.9830787687        0.1834844025
 O         -3.6398480226       -3.1114880490        0.5877013436
 O         -0.5794102921        0.2857873694       -0.5717819149
 C         -0.8677556474       -2.4868577065        0.3041912031
 C          0.1981088265       -1.8024558083        1.1259573495
 C         -0.1606053867       -1.2615574851        2.3589904976
 C          0.7748662652       -0.6293774025        3.1535674218
 C          2.0911230776       -0.5260824030        2.7377309973
 C          2.4625839631       -1.0677292279        1.5134998014
 C          1.5188727781       -1.7060340640        0.7176569921
 H          1.8310702953       -2.0938870344       -0.2370176762
 N          3.8027482958       -1.0139139006        1.0912503966
 S          4.2419982052       -0.4585147565       -0.4242729097
 O          3.5870712001       -1.2342961527       -1.4447166467
 O          5.6886224193       -0.5069693039       -0.4176014845
 C          3.7158012858        1.2457727112       -0.4729727937
 C          4.6749076909        2.2351246018       -0.3653765440
 C          4.2755856003        3.5613538147       -0.3553124618
 C          2.9272573547        3.8754096664       -0.4407704257
 C          1.9790459051        2.8699183199       -0.5423592105
 C          2.3700355687        1.5396154762       -0.5611082346
 H          1.6372773817        0.7527944195       -0.6394898526
 H          0.9269952271        3.0989092739       -0.6040612990
 H          2.6138902437        4.9076142917       -0.4285051492
 H          5.0135706342        4.3436418092       -0.2779641510
 H          5.7108087998        1.9436221963       -0.2997078406
 H          4.4315281067       -0.6265043444        1.7807025229
 H          2.8246464203       -0.0324571439        3.3571851715
 H          0.4787908624       -0.2103340075        4.1035824407
 H         -1.1907394443       -1.3395582155        2.6814038929
 H         -1.3289912552       -3.2637057652        0.9373691176
 C         -0.3098172932       -3.2001907577       -0.9182510294
 C         -1.1591041523       -3.4615038081       -2.1253432819
 C         -0.0266692504       -2.4842352161       -2.2029788344
 H          0.8615185915       -2.7549377114       -2.7556777614
 H         -0.2570164822       -1.4318932121       -2.2492913505
 H         -1.0573115630       -4.4125872005       -2.6261439524
 H         -2.1688115111       -3.0764534903       -2.1219040925
 H          0.3816427077       -3.9915346661       -0.6433497552
