  62
        -98.93815085
 C          2.1653004095        1.1797987833        0.2349216755
 C          2.2890181956        0.1107721188       -0.6820523495
 C          3.0793400350       -1.0530358768       -0.2351091628
 C          3.6047185245       -1.0588465589        1.0015224624
 C          4.4532445440       -2.1226489247        1.6417981464
 C          5.9493744489       -1.8320100347        1.4342146908
 C          6.5396329081       -2.3884583097        0.1393601991
 H          7.5600780718       -2.0076781415        0.0567887618
 H          6.6001450758       -3.4763850707        0.2110310357
 C          5.7738747312       -2.0239868823       -1.1347459243
 H          5.4809251811       -0.9731881985       -1.0994949605
 H          6.4535202367       -2.1425784498       -1.9806993838
 C          4.5349081131       -2.9020423051       -1.3656731799
 H          4.5645381378       -3.7518293986       -0.6842029854
 H          4.5663193342       -3.3156519144       -2.3759769248
 C          3.1888963159       -2.1774314951       -1.2296653885
 H          2.9228928151       -1.7253427850       -2.1906552347
 H          2.4053020904       -2.9113210506       -1.0083143669
 H          6.0872320556       -0.7483307000        1.4667311316
 H          6.5071425648       -2.2578117561        2.2706088992
 H          4.2367519816       -2.0850616812        2.7115659412
 H          4.1860122012       -3.1062658827        1.2671706972
 O          3.4572997146       -0.0113547063        1.8581996643
 C          2.7438231859        1.1157759504        1.5070613214
 O          2.6969838899        1.9888031054        2.3961742917
 H         -0.2638807535        0.8713343436       -1.5451394953
 C         -0.7869873586        1.3007758486       -0.7036740816
 C         -0.1067803445        2.1456081416        0.1621269339
 C         -0.7877586862        2.6589855782        1.2598164951
 C         -2.1136328660        2.3311783489        1.4833110210
 C         -2.7829297123        1.4768243674        0.6249568421
 C         -2.1074699474        0.9520904501       -0.4685124541
 N         -2.7713393531        0.0452108060       -1.3251481987
 S         -3.1961079526       -1.4161044022       -0.6009104048
 O         -2.3034254670       -1.7447316939        0.4884700297
 O         -3.2773943717       -2.3764534837       -1.6801117999
 C         -4.8347324703       -1.1097497037        0.0254333867
 C         -5.0774356890       -1.1819326348        1.3830217960
 C         -6.3605936637       -0.9383150257        1.8479293344
 C         -7.3722700044       -0.6289818383        0.9516398839
 C         -7.1124511251       -0.5630981048       -0.4093584956
 C         -5.8322823971       -0.8063326726       -0.8806585805
 H         -5.5874537543       -0.7716291373       -1.9290304947
 H         -7.9021065541       -0.3231692808       -1.1029586259
 H         -8.3693358083       -0.4390651541        1.3163873354
 H         -6.5641477073       -0.9899746920        2.9054806318
 H         -4.2573969011       -1.4211995525        2.0412488703
 H         -2.2366285374       -0.1505699065       -2.1612472158
 H         -3.8121721764        1.2080720546        0.7992708952
 H         -2.6290344687        2.7389873761        2.3394838890
 H         -0.2609368408        3.3003633717        1.9516424787
 C          1.3593462694        2.4409132435       -0.0473206118
 H          1.6679535852        3.1649990957        0.7182775592
 C          1.6313407845        3.0417516853       -1.4116697058
 C          1.2702197665        4.4754407259       -1.6538594092
 C          2.7098611170        4.0711806626       -1.5554216263
 H          3.3092934469        4.0660844684       -2.4534029680
 H          3.2584537588        4.3479240312       -0.6666825189
 H          0.8423820963        5.0279985209       -0.8310996478
 H          0.8783884430        4.7511349245       -2.6207481787
 H          1.5026167340        2.3435448650       -2.2276755323
 O          1.7775325890        0.1003748351       -1.8356836546
