  62
        -98.94472382
 C          2.0133448063        1.3706607789        0.3010695558
 C          2.6466730542        0.7556254542       -0.8060180350
 C          3.7942486446       -0.1065925537       -0.4868958461
 C          4.1737008384       -0.2545019631        0.7954830384
 C          5.2845706351       -1.1483297908        1.2638994066
 C          4.7596641902       -2.5490737102        1.6093643919
 C          3.8708660306       -3.1605635904        0.5258722457
 H          3.5832668821       -4.1582480589        0.8651537821
 H          2.9524759621       -2.5742622838        0.4421581145
 C          4.5321218631       -3.2612658382       -0.8558700537
 H          5.6147592501       -3.1764712513       -0.7550996673
 H          4.3214676928       -4.2482825385       -1.2730146636
 C          4.0355331711       -2.2325280516       -1.8737206974
 H          2.9428822904       -2.2502194605       -1.9106671381
 H          4.3997333524       -2.5289219027       -2.8609836974
 C          4.4864854408       -0.7859237195       -1.6345445693
 H          5.5703481055       -0.7543458624       -1.5067268098
 H          4.2269997180       -0.2068655386       -2.5256023464
 H          5.6139594068       -3.2031559666        1.7925516994
 H          4.1782918015       -2.4836255633        2.5321499199
 H          6.0434067890       -1.2145417600        0.4868945030
 H          5.7290953822       -0.7064699523        2.1572392105
 O          3.5441253177        0.3586861050        1.8306001212
 C          2.4411076053        1.1690873785        1.6124451525
 O          1.9328923318        1.6386815148        2.6515218933
 H         -0.0538819592       -0.1597262436        0.7485950473
 C         -0.6062296783        0.2203399181       -0.1026839102
 C         -0.2929566239        1.4791137083       -0.6021221436
 C         -1.0229331089        1.9624044230       -1.6795272924
 C         -2.0120707536        1.1870118233       -2.2610657057
 C         -2.3016978114       -0.0753600344       -1.7786219147
 C         -1.5931081685       -0.5591391030       -0.6853088974
 N         -1.8926004091       -1.8324284671       -0.1724862551
 S         -3.5041639314       -2.2481357348        0.0041586824
 O         -3.5308015070       -3.2060586010        1.0872985160
 O         -4.0263211701       -2.7119907389       -1.2570490030
 C         -4.3312753538       -0.7401673504        0.4794505603
 C         -3.9179535798       -0.1069965114        1.6349447377
 C         -4.5278210979        1.0810109840        2.0031010520
 C         -5.5362721272        1.6127934198        1.2137151894
 C         -5.9442199983        0.9619464783        0.0600066236
 C         -5.3357914676       -0.2254798024       -0.3144218234
 H         -5.6189083145       -0.7625701143       -1.2049666115
 H         -6.7300796032        1.3766194680       -0.5503739872
 H         -6.0062262548        2.5396761215        1.5021875995
 H         -4.2108054495        1.5878760829        2.9005190524
 H         -3.1337465013       -0.5470141744        2.2304986907
 H         -1.3549466014       -2.0862612156        0.6426938475
 H         -3.0536596452       -0.6987178989       -2.2344717059
 H         -2.5620802844        1.5700662768       -3.1068000582
 H         -0.8102754404        2.9423879775       -2.0731515093
 C          0.8041727366        2.2614020233        0.0794147692
 H          0.4479715008        2.5444662438        1.0808663042
 C          1.2078296118        3.5166207223       -0.6655262849
 C          0.4597972213        4.7967700809       -0.4493048708
 C          1.8440246258        4.6355565776        0.1012404232
 H          2.6525655309        5.1826919322       -0.3598245922
 H          1.9616153842        4.5011819515        1.1669978555
 H          0.3193991127        5.4604376660       -1.2890756516
 H         -0.3653208196        4.7828543459        0.2464304078
 H          1.5939474230        3.3062965247       -1.6561236048
 O          2.2736845294        0.9138106908       -1.9969473926
