  62
        -98.94324527
 C          2.3751184585        0.4855774092        0.1078049483
 C          3.4461259184        0.4188268554        1.0309332856
 C          4.4360815536       -0.6392270379        0.7913090719
 C          4.2612416394       -1.4800438060       -0.2448040514
 C          5.2144496607       -2.5730515795       -0.6309360040
 C          6.2514529912       -2.0732413481       -1.6464686081
 C          6.9279723779       -0.7627714919       -1.2441241144
 H          7.6598485266       -0.5234107447       -2.0186689442
 H          6.1844607191        0.0375931395       -1.2465023048
 C          7.6248743891       -0.8017537105        0.1230889758
 H          7.7889310817       -1.8364591477        0.4261223083
 H          8.6062784893       -0.3320343451        0.0292742999
 C          6.8811046199       -0.0602387685        1.2354571636
 H          7.5562855783        0.0366243544        2.0898742931
 H          6.6322372935        0.9496551278        0.8996207723
 C          5.5971735010       -0.7300423278        1.7412734581
 H          5.8027627810       -1.7703886160        2.0013601061
 H          5.2836926739       -0.2046612147        2.6482290124
 H          7.0073045348       -2.8495686363       -1.7783917876
 H          5.7507823523       -1.9196289344       -2.6051946426
 H          5.7142837976       -2.9443553407        0.2615887838
 H          4.6410698896       -3.3855057040       -1.0803508999
 O          3.2072975610       -1.3992358072       -1.0961714318
 C          2.2426438972       -0.4130326761       -0.9507288372
 O          1.3424483378       -0.4455160210       -1.8105373325
 O          3.5651124013        1.2036968435        2.0102425754
 C          1.3186095206        1.5608796104        0.2908697847
 C         -0.0241337197        0.9140086147        0.5238243442
 C         -0.1697511495        0.0604992125        1.6151946152
 C         -1.3746021264       -0.5647682476        1.8680112281
 C         -2.4626791098       -0.3567897121        1.0373558764
 C         -2.3320136811        0.4977393163       -0.0475054832
 C         -1.1198012578        1.1325037018       -0.2944623663
 H         -1.0350740108        1.7902340738       -1.1452899170
 N         -3.4244585495        0.7035455170       -0.9033553002
 S         -4.9439833710        0.9799969037       -0.2561089373
 O         -5.6702386697        1.6831957276       -1.2909207201
 O         -4.8628590282        1.6366542437        1.0279936082
 C         -5.6372688591       -0.6490975753       -0.0673134338
 C         -5.6416960391       -1.4873000601       -1.1649309104
 C         -6.1906408579       -2.7531758436       -1.0376440711
 C         -6.7254839926       -3.1563251729        0.1769575706
 C         -6.7160013991       -2.3020039467        1.2687854340
 C         -6.1676064055       -1.0345600464        1.1482232170
 H         -6.1333930049       -0.3388606590        1.9715930187
 H         -7.1319569603       -2.6174783342        2.2121669580
 H         -7.1517191729       -4.1424794152        0.2728349621
 H         -6.1988229914       -3.4206526645       -1.8843456633
 H         -5.2178621061       -1.1371483391       -2.0913701327
 H         -3.2326041677        1.3179205440       -1.6806923259
 H         -3.4044470755       -0.8454851606        1.2260619132
 H         -1.4698007501       -1.2243336773        2.7173018949
 H          0.6812028711       -0.1061508076        2.2616959567
 H          1.6018088135        2.0934158380        1.2106158520
 C          1.3439106496        2.5394946666       -0.8636847530
 C          0.7949324732        3.9228230704       -0.6852230084
 C          2.2740039590        3.7122204376       -0.8016208813
 H          2.7704830384        4.0254393046       -1.7078394155
 H          2.8785384294        3.8205518040        0.0869647478
 H          0.2767004624        4.3848009139       -1.5122825870
 H          0.3921968127        4.1787985441        0.2832525131
 H          1.2147528936        2.0568934189       -1.8261078757
