  62
        -98.93347860
 C         -1.3918531565       -1.6937155481        0.4944204057
 C         -1.6092674640       -0.8653513670       -0.6330546447
 C         -2.4933705649        0.2916058704       -0.4174815541
 C         -2.9430833331        0.5697030208        0.8180409388
 C         -3.8586429147        1.6983317183        1.2129387665
 C         -3.3052501842        3.1214365490        1.0046186471
 C         -3.7119314851        3.7679626412       -0.3256860321
 H         -4.6270170358        3.2926233418       -0.6808632052
 H         -3.9545982334        4.8171878206       -0.1459426303
 C         -2.6541761217        3.7350563382       -1.4329248933
 H         -1.9122234925        4.5115623913       -1.2379222284
 H         -3.1496017348        3.9798454659       -2.3746716399
 C         -1.9014065944        2.4150448296       -1.5970914868
 H         -1.3316959888        2.4587350165       -2.5267566799
 H         -1.1688829287        2.3040732056       -0.7945818756
 C         -2.7944578840        1.1610018442       -1.6038583720
 H         -3.8483938183        1.4352382020       -1.6158427918
 H         -2.5821598476        0.5611340829       -2.4909384649
 H         -2.2202793414        3.1045371988        1.1067398366
 H         -3.6976510083        3.7350998773        1.8171312971
 H         -4.8014988279        1.5913629315        0.6714440056
 H         -4.0660961291        1.5461846019        2.2742439292
 O         -2.6261798194       -0.1986609772        1.8979819756
 C         -1.8659917305       -1.3478514707        1.7620210539
 O         -1.6806812142       -1.9662962308        2.8302429005
 H          1.3483793395       -1.2868219283        1.1640310658
 C          1.6112747658       -1.7728251733        0.2353056302
 C          0.7280620809       -2.6831761458       -0.3340817941
 C          1.0809213099       -3.3003789998       -1.5266102674
 C          2.2914250851       -3.0093090101       -2.1303799579
 C          3.1721293761       -2.1107128290       -1.5576323192
 C          2.8283027328       -1.4881587031       -0.3616268959
 N          3.7319124715       -0.6119168023        0.2596316044
 S          3.3093934268        0.7062692926        1.1707061274
 O          4.5772244084        1.3348677859        1.4809762718
 O          2.5056053336        0.3217226208        2.3043295347
 C          2.3984272961        1.8389885815        0.1331123882
 C          2.5854184343        1.8574572763       -1.2339723404
 C          1.9680588699        2.8485739881       -1.9816596803
 C          1.1896755018        3.8075434314       -1.3545657699
 C          1.0008032266        3.7694640774        0.0186209545
 C          1.6093707680        2.7767856207        0.7694174889
 H          1.4892997795        2.7078783247        1.8394233311
 H          0.3877436849        4.5100981344        0.5077832552
 H          0.7227490543        4.5847782333       -1.9383941423
 H          2.1031251433        2.8713518946       -3.0509284041
 H          3.1976365796        1.1074162705       -1.7069069193
 H          4.6031060399       -0.4656233597       -0.2275433216
 H          4.1212882310       -1.8953799129       -2.0246905926
 H          2.5528422608       -3.4892305087       -3.0611551013
 H          0.3996478575       -3.9925864798       -1.9928240703
 C         -0.5575561468       -2.9592292097        0.4057144211
 H         -0.2899671717       -3.1931256970        1.4500305795
 C         -1.3132316626       -4.1682918681       -0.1260479543
 C         -2.7846879161       -4.3201482680        0.1165692387
 C         -2.2745067627       -4.0845933228       -1.2717809886
 H         -2.3058258781       -4.9064063627       -1.9722173510
 H         -2.4335262226       -3.1187163350       -1.7232532749
 H         -3.2923541488       -3.5109417232        0.6218583224
 H         -3.1648706164       -5.2984290590        0.3698825263
 H         -0.7206887755       -5.0752580282       -0.0521177084
 O         -1.1142605080       -1.0742815418       -1.7696317359
