  62
        -98.94008393
 C         -0.1219853814       -2.1125016702       -0.3787554920
 C          0.7485613789       -1.9861950122        0.7322241581
 C          2.1652343491       -1.7017754830        0.4204120982
 C          2.5503870690       -1.5325539218       -0.8548662316
 C          3.9306035692       -1.2583998023       -1.3975601515
 C          4.8038565101       -0.2446648238       -0.6460943104
 C          4.0390685311        0.9038785860        0.0285061210
 H          4.4912149418        1.8535082460       -0.2641361479
 H          3.0020151811        0.9231893172       -0.3099498888
 C          4.0696247312        0.8227295541        1.5564294309
 H          5.0830001511        0.5632542230        1.8730714605
 H          3.8391516721        1.8097876939        1.9656321321
 C          3.0800642905       -0.1583487758        2.1857131599
 H          2.0653694708        0.2408386051        2.1073860505
 H          3.3072663906       -0.2217044872        3.2534376398
 C          3.0846303293       -1.5802905551        1.6013748382
 H          4.0950677690       -1.8995461156        1.3539465677
 H          2.6847238089       -2.2527841957        2.3657111475
 H          5.3973479198       -0.7620713152        0.1064752389
 H          5.5067833403        0.1655387064       -1.3729738700
 H          4.4647259984       -2.2110087526       -1.4610037827
 H          3.7691702793       -0.9129271109       -2.4213898911
 O          1.6726219888       -1.6315424598       -1.8930390416
 C          0.3378890086       -1.9306728790       -1.6856259518
 O         -0.3339011316       -2.0072082572       -2.7333522318
 H         -1.1748070796       -0.2025608213        1.2790515904
 C         -2.0196504296       -0.0774361298        0.6192637307
 C         -2.3977872005       -1.1062878885       -0.2315588905
 C         -3.5083846805       -0.9255473067       -1.0475599901
 C         -4.2196720195        0.2599722339       -1.0168562387
 C         -3.8202674886        1.2954926826       -0.1918185575
 C         -2.7100033486        1.1265828607        0.6275927322
 N         -2.2715610877        2.1714355494        1.4607986234
 S         -0.6523280373        2.5962634481        1.4358720036
 O          0.1381696119        1.5955779367        2.0993013024
 O         -0.6216345262        3.9227828174        2.0133635952
 C         -0.2363941075        2.6841042398       -0.2952221263
 C          0.2861226315        1.5747963501       -0.9276497777
 C          0.5400143214        1.6349657315       -2.2888879776
 C          0.2698809623        2.7999744926       -2.9897323162
 C         -0.2498771168        3.9092620322       -2.3393147449
 C         -0.5120013466        3.8514055808       -0.9804649649
 H         -0.9080710159        4.6920179305       -0.4340278538
 H         -0.4542882561        4.8142338331       -2.8883450838
 H          0.4677665122        2.8394067637       -4.0492272462
 H          0.9332176806        0.7653036518       -2.7926047987
 H          0.4850529009        0.6819921593       -0.3545720788
 H         -2.8479310170        3.0000894899        1.4162410944
 H         -4.3609527278        2.2295606530       -0.1794818763
 H         -5.0818705995        0.3864033053       -1.6532862784
 H         -3.8039689412       -1.7174824856       -1.7190915110
 C         -1.6120645016       -2.3969006291       -0.2762160921
 H         -1.8815012821       -2.9114656978       -1.2097149527
 C         -2.0067413622       -3.2869977601        0.8851780669
 C         -3.2500414728       -4.1159565190        0.7775797861
 C         -1.9040609634       -4.7740734101        0.7397289451
 H         -1.5819036437       -5.3516584713        1.5928898544
 H         -1.5509440838       -5.1598526792       -0.2058076354
 H         -3.8596562528       -4.2423877196        1.6589663260
 H         -3.8123023729       -4.0640887675       -0.1423296138
 H         -1.7641845517       -2.8652808215        1.8515571373
 O          0.3967917689       -2.1150452733        1.9334572379
