  62
        -98.94480060
 C          0.9202892266        1.1523235261        0.6869672836
 C          1.1693931960        0.4458402343       -0.5158197280
 C          2.1082629981       -0.6825282905       -0.4035208938
 C          2.5230772617       -1.0794640065        0.8115867682
 C          3.5273563990       -2.1659091618        1.0638588902
 C          4.9490495491       -1.5901013905        1.1409055996
 C          5.2981875028       -0.6441595572       -0.0087521627
 H          4.6724958847        0.2488559083        0.0607517794
 H          6.3312119775       -0.3221109596        0.1400476958
 C          5.1511821185       -1.2588386816       -1.4078827092
 H          5.1355104797       -2.3466992498       -1.3335619804
 H          6.0266924705       -0.9870838558       -2.0012289363
 C          3.9211529338       -0.7854874370       -2.1852912310
 H          4.0329162848       -1.1056852637       -3.2243429290
 H          3.8857354013        0.3069637679       -2.1824979968
 C          2.5735384436       -1.3191511511       -1.6818166556
 H          1.8126166703       -1.0780682331       -2.4292087282
 H          2.6296607623       -2.4033370776       -1.5784372515
 H          5.0485094912       -1.0381961154        2.0787396756
 H          5.6578785419       -2.4199386100        1.1597522165
 H          3.2884525559       -2.6459099031        2.0146411619
 H          3.4686034628       -2.9047873042        0.2670145599
 O          2.1016762451       -0.4928700294        1.9628080951
 C          1.3384820322        0.6632126670        1.9265402867
 O          1.0895395401        1.1459128007        3.0503879029
 H         -1.8797437647        0.7921209698        1.1550866043
 C         -2.0624123842        1.3815570835        0.2676749975
 C         -1.1162712131        2.3149203720       -0.1379165605
 C         -1.3723031976        3.0753932264       -1.2711984483
 C         -2.5467331424        2.8962949967       -1.9801744519
 C         -3.4844639716        1.9635542683       -1.5774318727
 C         -3.2383227285        1.2003375255       -0.4413391586
 N         -4.1818092257        0.2649798442        0.0077172474
 S         -3.7180926053       -1.1033522637        0.8309276283
 O         -4.8634358569       -1.9831439839        0.7218274418
 O         -3.3138384199       -0.7727407156        2.1750749991
 C         -2.3578149258       -1.8226688411       -0.0705467596
 C         -1.2362060928       -2.2397476057        0.6148172171
 C         -0.2324072796       -2.8981527391       -0.0768712868
 C         -0.3623229266       -3.1147882157       -1.4391512810
 C         -1.4859148433       -2.6716341505       -2.1182078862
 C         -2.4986944103       -2.0267752173       -1.4286803898
 H         -3.3928685063       -1.6907730936       -1.9276846038
 H         -1.5773555382       -2.8323787805       -3.1802287737
 H          0.4162817426       -3.6334060305       -1.9751612447
 H          0.6431454130       -3.2379223820        0.4530571118
 H         -1.1675230416       -2.0425889231        1.6740055763
 H         -4.9617640336        0.1002620572       -0.6105338090
 H         -4.4001392276        1.8255041291       -2.1315870097
 H         -2.7320412332        3.4879621419       -2.8637185309
 H         -0.6425431262        3.7905471012       -1.6129146865
 C          0.1294736066        2.4480436308        0.7008493152
 H         -0.1905219855        2.5764644028        1.7485808516
 C          0.9648520250        3.6710975663        0.3475742783
 C          2.4225975839        3.7304148923        0.6921461512
 C          1.9939812921        3.6558362339       -0.7408994225
 H          2.1046039379        4.5386009271       -1.3534634407
 H          2.1422003509        2.7317126223       -1.2765460538
 H          2.8647491638        2.8538656975        1.1441251097
 H          2.8246276996        4.6605772098        1.0647589790
 H          0.4052245722        4.5922913600        0.4776708777
 O          0.6635448846        0.7396941773       -1.6276072620
