  62
        -98.94001080
 C          1.7421959410        1.4169493495        0.3885239708
 C          1.6189801405        0.2979222798       -0.4668318595
 C          2.5680354999       -0.8090853208       -0.2398164996
 C          3.4709777598       -0.7186519715        0.7543239706
 C          4.5168240192       -1.6987759022        1.2432945205
 C          4.9461388987       -2.8826046822        0.3801724403
 C          5.6826432691       -2.5047419823       -0.9043363695
 H          6.6576737293       -2.0890282029       -0.6377165092
 H          5.8569883887       -3.4173465623       -1.4786179396
 C          4.9755031098       -1.4854103417       -1.7942108993
 H          4.8980986702       -0.5310182318       -1.2692033491
 H          5.6036127300       -1.3172380619       -2.6733382192
 C          3.5889712096       -1.8961521409       -2.2864807397
 H          3.6467665792       -2.8696528908       -2.7772877899
 H          3.2768975801       -1.1631148605       -3.0353181795
 C          2.4905480894       -1.9535847605       -1.2095460698
 H          2.5049967488       -2.9063336707       -0.6851404200
 H          1.5239281296       -1.8670658199       -1.7148849500
 H          4.0940225784       -3.5173756117        0.1560370701
 H          5.6315977683       -3.4779042827        0.9895458403
 H          5.3976393195       -1.0949853827        1.4834843608
 H          4.1400100388       -2.0849861122        2.1968312204
 O          3.5302413102        0.3719941483        1.5731297909
 C          2.6879222908        1.4549860788        1.4143481810
 O          2.8754323012        2.3762480185        2.2331936112
 O          0.7613703706        0.2083757904       -1.3844595796
 C          0.8240455017        2.6218763100        0.2537259709
 C         -0.5766950686        2.1716515907        0.5854110306
 C         -0.9391035289        2.0000455906        1.9188473305
 C         -2.1851153193        1.5042967012        2.2543190902
 C         -3.0867453393        1.1428354219        1.2674148300
 C         -2.7256296590        1.2955634020       -0.0641488799
 C         -1.4886151187        1.8302734614       -0.3993094996
 H         -1.2246672085        1.9371956815       -1.4389008895
 N         -3.6056240791        0.8769017127       -1.0764584401
 S         -4.3800227799       -0.5893882769       -0.8644754106
 O         -4.5863535700       -1.1099350265       -2.1987558607
 O         -5.5802296599       -0.3860462965       -0.0890152707
 C         -3.2680843606       -1.6485549777        0.0520325693
 C         -3.7951692712       -2.4090222777        1.0773621691
 C         -2.9609825917       -3.2557647083        1.7887196990
 C         -1.6139383217       -3.3227103689        1.4689309192
 C         -1.0995790411       -2.5518375490        0.4385421695
 C         -1.9301632106       -1.7101887884       -0.2844178305
 H         -1.5264678401       -1.1013571484       -1.0782770903
 H         -0.0498899711       -2.5874428795        0.1934130296
 H         -0.9596905021       -3.9753816794        2.0251981792
 H         -3.3613483322       -3.8550861183        2.5905216488
 H         -4.8455326911       -2.3146913172        1.3011434690
 H         -3.2137196989        0.9458910427       -2.0046768601
 H         -4.0575421995        0.7404702624        1.5091183198
 H         -2.4549483395        1.3854385111        3.2925628302
 H         -0.2223797389        2.2500078400        2.6889891007
 H          1.1482603819        3.3356922797        1.0221692612
 C          0.9581346422        3.2740460703       -1.1064265789
 C          0.4043114230        4.6498259906       -1.3197933887
 C          1.8869575029        4.4373110398       -1.2719806085
 H          2.4502816230        4.5200121997       -2.1895097684
 H          2.4254397729        4.7754081693       -0.3986222183
 H         -0.0513306068        4.8830310811       -2.2701194087
 H         -0.0662004669        5.1326094807       -0.4766566986
 H          0.9015393720        2.5712802905       -1.9285935591
