  62
        -98.94525708
 C         -0.9606613357       -1.5772532801       -0.4362343782
 C         -2.1688163001       -1.7048301543        0.2987019044
 C         -3.2470027914       -0.7770792000       -0.0547869992
 C         -3.0569845476        0.1183198292       -1.0406386261
 C         -4.0897957386        1.0725694286       -1.5785436134
 C         -4.2341953812        2.3790632245       -0.7876976983
 C         -4.8791196818        2.2398624676        0.5913825787
 H         -5.0941362151        3.2490358183        0.9485653956
 H         -5.8334237224        1.7213752497        0.4937960603
 C         -4.0043527914        1.5211764285        1.6283090013
 H         -2.9709403644        1.4879621919        1.2761932784
 H         -4.0090568578        2.0846853667        2.5637764792
 C         -4.4571233260        0.0980132749        1.9541155653
 H         -3.7542026022       -0.3306522361        2.6728267979
 H         -5.4438660438        0.1232937511        2.4219523841
 C         -4.5178902386       -0.8350581951        0.7375144223
 H         -5.3712444869       -0.5795986167        0.1093408762
 H         -4.6408265320       -1.8603606538        1.0947543404
 H         -3.2471129977        2.8312174503       -0.6841778480
 H         -4.8501873700        3.0540656470       -1.3866704519
 H         -5.0554788829        0.5674175258       -1.6249257146
 H         -3.7809713293        1.3197862476       -2.5966975473
 O         -1.8805005287        0.2224992091       -1.7110718977
 C         -0.8024656675       -0.6064462461       -1.4252473307
 O          0.1989467090       -0.3731177632       -2.1286272132
 O         -2.3443351887       -2.5734642520        1.1942760240
 C          0.1452502024       -2.5655393854       -0.1051991692
 C          1.1781763868       -1.9504203084        0.8083700618
 C          1.2199696098       -2.3172983808        2.1497012639
 C          2.1710032310       -1.7825736473        2.9992199854
 C          3.0943163144       -0.8679434279        2.5274288421
 C          3.0539149372       -0.4847793871        1.1907229661
 C          2.0990053905       -1.0230017511        0.3389293771
 H          2.0753937660       -0.7093834614       -0.6927538603
 N          3.9836718547        0.4392401561        0.6954942361
 S          3.5763965418        1.5116733144       -0.5149052354
 O          3.6250546423        0.8648058720       -1.8003087768
 O          4.5141243150        2.6038384798       -0.3370602593
 C          1.9360802910        2.1061461513       -0.1425566679
 C          1.0598748597        2.3505663728       -1.1785579973
 C         -0.1836483066        2.8918063721       -0.8911279884
 C         -0.5266939367        3.1755779455        0.4208628305
 C          0.3634922716        2.9193632278        1.4521740307
 C          1.6098495265        2.3864228869        1.1700341006
 H          2.3220398441        2.1910903121        1.9548893637
 H          0.0901626946        3.1368653927        2.4722054244
 H         -1.4912836162        3.6042649163        0.6462129571
 H         -0.8766205949        3.0805033857       -1.6960848015
 H          1.3536957174        2.0954098506       -2.1836678237
 H          4.5874977356        0.8595104364        1.3863965862
 H          3.8436433374       -0.4527985590        3.1839982947
 H          2.1943000521       -2.0798384078        4.0364520105
 H          0.4917770277       -3.0227113692        2.5225312707
 H         -0.3557816428       -3.3652059972        0.4581629163
 C          0.7888403053       -3.1830476954       -1.3305714166
 C          1.4981434800       -4.4953563663       -1.1895455063
 C          0.1931124481       -4.4231988793       -1.9230767523
 H          0.1954197403       -4.5325951022       -2.9972725367
 H         -0.6839662573       -4.8346492912       -1.4447687009
 H          2.4011398699       -4.6551928061       -1.7586091097
 H          1.5051961253       -4.9575462261       -0.2138935067
 H          1.2058615783       -2.4578794636       -2.0173265843
