  62
        -98.94246933
 C          1.1976580596        1.6882149395        0.2231867338
 C          1.5797489159        0.6913332851        1.1481587465
 C          2.7627952180       -0.1229493032        0.8141988771
 C          3.4054229322        0.1187151255       -0.3433395205
 C          4.6071878322       -0.5865047265       -0.9151920844
 C          4.2622007331       -1.9571979600       -1.5146216066
 C          3.3812678018       -2.8391237296       -0.6340027709
 H          3.1631998827       -3.7525759702       -1.1948236660
 H          2.4225773305       -2.3437488130       -0.4645200552
 C          4.0004440241       -3.2488346835        0.7009987668
 H          4.9495776938       -3.7563637622        0.5136103663
 H          3.3208475263       -3.9730494333        1.1577328254
 C          4.2375932769       -2.1225790545        1.7112871644
 H          5.1455323673       -1.5695932682        1.4850000363
 H          4.3943015092       -2.5907118830        2.6874607561
 C          3.0653942400       -1.1605129313        1.8677393152
 H          3.1895091654       -0.6017803113        2.8032261956
 H          2.1432687960       -1.7403626623        1.9959631461
 H          5.1950695116       -2.4789462892       -1.7379424057
 H          3.7314244646       -1.7938464408       -2.4560897216
 H          4.9928697053        0.0532605067       -1.7124244778
 H          5.3829676391       -0.6817225735       -0.1612613277
 O          2.9953005295        1.0866598909       -1.2131814417
 C          1.8746850330        1.8632933724       -0.9823080212
 O          1.5996344415        2.6576248438       -1.9024846636
 H         -0.4842451371        0.0582409712       -0.4970578369
 C         -1.2282390058        0.7538814711       -0.8495625649
 C         -1.1523612667        2.0863859728       -0.4709729580
 C         -2.1064131935        2.9671541686       -0.9657711122
 C         -3.0943000143        2.5148054212       -1.8241935806
 C         -3.1677790396        1.1831645351       -2.1923606427
 C         -2.2195992874        0.2936977477       -1.6994963445
 N         -2.2354745240       -1.0639538436       -2.0487675429
 S         -1.7395471226       -2.2270459332       -0.9540922015
 O         -0.3122458525       -2.1742508954       -0.7634208376
 O         -2.2568557482       -3.4634876013       -1.5015574333
 C         -2.6139415960       -1.8349450925        0.5506015990
 C         -3.9693322360       -2.1072242584        0.5724171806
 C         -4.7055680184       -1.7795648550        1.6980185162
 C         -4.0779375277       -1.1802743709        2.7802169287
 C         -2.7181502672       -0.9174245633        2.7449152856
 C         -1.9741986693       -1.2460608318        1.6214028861
 H         -0.9153898738       -1.0425779155        1.5803560028
 H         -2.2199973538       -0.4525376472        3.5808523993
 H         -4.6497137722       -0.9193909319        3.6567726651
 H         -5.7626319480       -1.9889272661        1.7284106265
 H         -4.4153403723       -2.5867315394       -0.2838153582
 H         -3.0366829950       -1.3633438636       -2.5837792029
 H         -3.9398637013        0.8360045192       -2.8615107851
 H         -3.8239831578        3.2107847439       -2.2092578399
 H         -2.0713266260        4.0075433185       -0.6866750610
 C         -0.0603090645        2.4918231003        0.4916111076
 H         -0.3843286588        2.1932607932        1.5010708392
 C          0.2217628545        3.9791617196        0.4916069705
 C         -0.5572865713        4.8979375014        1.3836066264
 C          0.8756771790        4.5901910229        1.6938528771
 H          1.6174642017        5.3596642427        1.5417837577
 H          1.0908096630        3.9363846738        2.5266188865
 H         -1.3150964178        4.4598835620        2.0154382452
 H         -0.7994893927        5.8852434311        1.0201615380
 H          0.5267212844        4.3441782458       -0.4822453922
 O          0.9466813534        0.4740132161        2.2186540858
