  62
        -98.93192550
 C         -2.3049493295       -1.0822691004       -0.1370568994
 C         -3.6692143595       -1.1857354999        0.2364804008
 C         -4.5891837194       -0.1606209102       -0.2844277601
 C         -4.1001947593        0.8385771191       -1.0415479610
 C         -4.7912758891        1.9946840785       -1.7336862719
 C         -6.2161053891        2.3921541091       -1.3563594722
 C         -6.3721179689        2.9529567303        0.0565255973
 H         -5.8741078888        3.9248328903        0.1020691464
 H         -7.4359470789        3.1152804607        0.2430561472
 C         -5.7979310190        2.0888666812        1.1767009280
 H         -4.7142009290        2.0130460910        1.0631191080
 H         -5.9846831689        2.6026536421        2.1237208676
 C         -6.3863823392        0.6834098014        1.2869183993
 H         -6.0133894292        0.2438420522        2.2158720396
 H         -7.4738529492        0.7450939016        1.3593102893
 C         -6.0236590494       -0.2799206296        0.1428999101
 H         -6.1513681495       -1.3021770993        0.5104049010
 H         -6.6883332194       -0.1527395903       -0.7082684800
 H         -6.8938691692        1.5577898190       -1.5108348715
 H         -6.5146397790        3.1766628285       -2.0570882929
 H         -4.1305665190        2.8570509286       -1.5983380527
 H         -4.7704799892        1.7566979376       -2.8031187117
 O         -2.7745569093        0.9151206986       -1.3531874411
 C         -1.8455213594       -0.0193312612       -0.9148326603
 O         -0.6847423694        0.2228651583       -1.2947325406
 H          1.1700292804       -1.6181846113       -0.5148568090
 C          1.0220643505       -1.2468529904        0.4875623307
 C         -0.2008385895       -1.4361419096        1.1104319709
 C         -0.3852283394       -0.9204400785        2.3895474804
 C          0.6341195207       -0.2393630381        3.0273397498
 C          1.8543659707       -0.0500281488        2.4019406196
 C          2.0410674906       -0.5417763400        1.1169417400
 N          3.2793122306       -0.3711500007        0.4605729698
 S          3.9794379508        1.1602256291        0.3387834084
 O          4.1061330210        1.7311146302        1.6556271979
 O          3.2882660909        1.9684495583       -0.6430679322
 C          5.5898185907        0.7065223583       -0.2761117712
 C          5.8388272007        0.7569773771       -1.6339501813
 C          7.0877820606        0.3787795065       -2.1014272310
 C          8.0601397706       -0.0436911129       -1.2076816307
 C          7.7949678506       -0.0893533516        0.1529451194
 C          6.5484411707        0.2876646290        0.6262449191
 H          6.2997199508        0.2759975199        1.6743749791
 H          8.5543925806       -0.4164132811        0.8447152596
 H          9.0313417605       -0.3365500033       -1.5742544705
 H          7.2968576006        0.4157799356       -3.1585294310
 H          5.0563857807        1.1017296166       -2.2913237916
 H          3.2431089605       -0.7618028515       -0.4728255899
 H          2.6467864308        0.4971622015        2.8842264591
 H          0.4797855508        0.1517326028        4.0219656495
 H         -1.3431157394       -1.0522227479        2.8742746906
 C         -1.3505673096       -2.1245652401        0.4211771815
 H         -1.9430942497       -2.6470682693        1.1894274320
 C         -0.9024317198       -3.1869997110       -0.5707621576
 C         -1.8696725100       -3.7463113917       -1.5699079071
 C         -0.7046471998       -2.9262422223       -2.0326102378
 H          0.1088365901       -3.4326366329       -2.5321293874
 H         -0.8869066297       -1.9290383426       -2.4008706787
 H         -1.8619279601       -4.8089880619       -1.7593440861
 H         -2.8530899099       -3.3006280916       -1.6087791074
 H         -0.2193781199       -3.8952694307       -0.1109963870
 O         -4.1080396796       -2.1070388492        0.9751510616
