  62
        -98.93875493
 C          1.7021888620        0.4959679075        0.2041323667
 C          2.8436099659        0.3584178082        1.0347912289
 C          3.9885268130       -0.4045955556        0.5039611226
 C          3.8913355711       -0.9350570678       -0.7288767224
 C          4.9291276578       -1.7087899396       -1.4971946559
 C          6.0346804672       -0.8079722586       -2.0719734351
 C          6.5565542741        0.2609534410       -1.1152306846
 H          7.2454751671        0.8990830185       -1.6749053600
 H          5.7247529149        0.8889130906       -0.7910284005
 C          7.3005809413       -0.2677228338        0.1087002336
 H          8.1565788268       -0.8608904743       -0.2209439373
 H          7.6869704241        0.5980109177        0.6527559364
 C          6.4731608973       -1.1092612092        1.0824319275
 H          7.0564888702       -1.2093608495        2.0024846940
 H          6.3243778352       -2.1162077132        0.7017107016
 C          5.1357522460       -0.4930652608        1.4810507576
 H          4.7434827623       -1.0418922716        2.3459977310
 H          5.3045576046        0.5279175213        1.8418615468
 H          5.6315819789       -0.2988410765       -2.9508670071
 H          6.8605902798       -1.4417817676       -2.3992146975
 H          4.4093925958       -2.1931732070       -2.3269173993
 H          5.3508579798       -2.4896312691       -0.8710975814
 O          2.7732492300       -0.7855896959       -1.4915574023
 C          1.6607541505       -0.0850010804       -1.0623860625
 O          0.7329110649       -0.0717546093       -1.8979386275
 O          2.9133693854        0.8686134411        2.1854097874
 C          0.5491921344        1.3090584956        0.7667609710
 C         -0.5547895847        0.4393600102        1.3175381512
 C         -0.9860813825        0.5732064643        2.6317943859
 C         -2.0329027385       -0.1940466976        3.1141440069
 C         -2.6688305586       -1.1122395018        2.2974781916
 C         -2.2372917328       -1.2587181329        0.9861404318
 C         -1.1954000616       -0.4827371685        0.5021495762
 H         -0.8738851862       -0.5972565900       -0.5224630032
 N         -2.8917291683       -2.1816000816        0.1358966626
 S         -4.4598585676       -1.7411565906       -0.2661126976
 O         -5.2941184980       -1.8830294891        0.9000391375
 O         -4.8184416444       -2.5469318219       -1.4110548109
 C         -4.3299550405       -0.0224830988       -0.7224994057
 C         -4.5213313325        0.9499972770        0.2381762279
 C         -4.3317039473        2.2776684856       -0.1087042201
 C         -3.9536490544        2.6066746364       -1.4011899014
 C         -3.7613217479        1.6178470042       -2.3534586455
 C         -3.9449074588        0.2882634690       -2.0110575437
 H         -3.8067136560       -0.5097457096       -2.7232922833
 H         -3.4617905379        1.8760745993       -3.3566716827
 H         -3.8103264794        3.6412373630       -1.6719233632
 H         -4.4746263595        3.0492551776        0.6304130481
 H         -4.8185596923        0.6519836100        1.2300880678
 H         -2.3740420062       -2.3465615008       -0.7170651619
 H         -3.4961991320       -1.7077260574        2.6480518476
 H         -2.3570838124       -0.0767395265        4.1368838775
 H         -0.4894749128        1.2797323421        3.2803512338
 H          0.9825414180        1.8710637150        1.6048022186
 C         -0.0313200350        2.2981195245       -0.2268217845
 C         -0.7088042459        3.5305546425        0.2883596655
 C          0.6204842324        3.6360771955       -0.3956016118
 H          0.6635644646        4.0653036053       -1.3851833365
 H          1.4913232586        3.8467875268        0.2082033564
 H         -1.5836025349        3.8886638955       -0.2301683826
 H         -0.7392038050        3.6739490598        1.3575487288
 H         -0.4414776802        1.8276732559       -1.1111017660
