  62
        -98.94530773
 C         -2.1310495609       -0.9018668148        0.0736889065
 C         -2.8543570488       -0.2380225929        1.0922755556
 C         -3.5639406686        0.9825533596        0.6868996600
 C         -3.4500957839        1.4179097027       -0.5814183699
 C         -4.1530792465        2.6202859825       -1.1404750802
 C         -5.5097644019        2.2381299755       -1.7488680627
 C         -6.3761617978        1.3746020366       -0.8320025715
 H         -7.3191484812        1.1936245902       -1.3521827277
 H         -5.8927137048        0.4045913418       -0.6954785533
 C         -6.6612666326        1.9962105730        0.5423146144
 H         -6.4664084878        3.0688099491        0.5114000509
 H         -7.7206462937        1.8655670534        0.7725603087
 C         -5.8749596729        1.3716137800        1.6963464499
 H         -5.9924787871        0.2853267399        1.6737469527
 H         -6.3073306262        1.7284300119        2.6348613906
 C         -4.3754990866        1.6930075788        1.7337609290
 H         -4.2282656224        2.7731942657        1.6688735293
 H         -3.9861766664        1.3507343897        2.6972753187
 H         -6.0446668579        3.1554828114       -2.0013170763
 H         -5.3299157192        1.6839154780       -2.6729321104
 H         -4.2915047525        3.3546708507       -0.3491654879
 H         -3.5232292823        3.0540392270       -1.9192514094
 O         -2.7077604262        0.7787070984       -1.5215073877
 C         -2.0372334119       -0.3996036530       -1.2246747448
 O         -1.4071508995       -0.8873147715       -2.1812424346
 H          0.0901986814       -0.1560894810        1.2872581770
 C          0.6946332176       -0.8486108625        0.7131344204
 C          0.0944397742       -1.9810445812        0.1751462485
 C          0.8805166021       -2.8595575203       -0.5576995505
 C          2.2248311632       -2.5956549773       -0.7582528534
 C          2.8144745086       -1.4626984974       -0.2293370303
 C          2.0389398252       -0.5808125355        0.5124079870
 N          2.6320991398        0.5706040782        1.0653549430
 S          3.4504990261        1.5952676518        0.0125669967
 O          3.4136344984        2.8948007931        0.6489473235
 O          2.9168956064        1.5205302878       -1.3279769743
 C          5.1222603130        0.9831500071        0.0446943800
 C          5.7624629537        0.9021760447        1.2660087598
 C          7.0655527893        0.4328318429        1.3078670686
 C          7.7035947888        0.0579499249        0.1346272907
 C          7.0481619189        0.1485355461       -1.0837876907
 C          5.7438880595        0.6161275651       -1.1326818090
 H          5.1911611780        0.6979731099       -2.0551723975
 H          7.5454962067       -0.1429906105       -1.9949194215
 H          8.7176838676       -0.3075915480        0.1699392083
 H          7.5785884918        0.3609851782        2.2533083338
 H          5.2314237611        1.2069414956        2.1522566297
 H          1.9988336242        1.1059212697        1.6426473359
 H          3.8589915313       -1.2510206783       -0.3896282084
 H          2.8217573153       -3.2829024401       -1.3380680511
 H          0.4390083112       -3.7451571947       -0.9838381248
 C         -1.3824117814       -2.1782347704        0.4145218632
 H         -1.5369450145       -2.3279980650        1.4936314464
 C         -1.9708619574       -3.3572072271       -0.3306366962
 C         -1.8704572253       -4.7378728146        0.2437321524
 C         -3.1899920294       -4.0284465443        0.2247858505
 H         -3.9506540684       -4.3668783915       -0.4626876502
 H         -3.5826587746       -3.6497822523        1.1573026910
 H         -1.7270847767       -5.5678993856       -0.4313014344
 H         -1.3687754568       -4.8481862350        1.1930282799
 H         -1.9100793836       -3.2409857645       -1.4069391553
 O         -2.8973839970       -0.6426981694        2.2861929348
