  62
        -98.95134019
 C          2.3344289491        0.1542945800        0.1092080107
 C          1.6059692392       -0.4287340698       -0.9543136395
 C          1.4981908090       -1.8921838698       -0.9303724596
 C          2.0026238288       -2.5789161799        0.1108184104
 C          1.9862986486       -4.0740411599        0.2796855003
 C          0.6663253784       -4.6237665898        0.8367668900
 C         -0.4926478814       -4.6634346096       -0.1595960502
 H         -0.1646960714       -5.1521776395       -1.0781504001
 H         -1.2720728416       -5.2870358395        0.2829969197
 C         -1.0937845312       -3.2902930695       -0.4900181001
 H         -2.1850525412       -3.3591209693       -0.4736099103
 H         -0.8170738412       -2.5688657796        0.2827047300
 C         -0.6998639909       -2.7352340494       -1.8580080100
 H         -1.0923916209       -3.3869529493       -2.6424542901
 H         -1.1679469008       -1.7550616293       -1.9680107700
 C          0.8100451291       -2.5748386796       -2.0756964598
 H          1.2655294290       -3.5499382296       -2.2513438698
 H          0.9600485993       -1.9548435295       -2.9633609897
 H          0.3760820784       -4.0257453898        1.7043321400
 H          0.8568859682       -5.6429445199        1.1818857000
 H          2.2083085987       -4.5547055499       -0.6738962497
 H          2.7853532884       -4.3140635401        0.9846483604
 O          2.6302329487       -1.9736766601        1.1543023006
 C          2.8152833389       -0.6019096001        1.1768835507
 O          3.4207635988       -0.1795947903        2.1851004308
 H          0.4811546790        0.9923210101        1.6787332805
 C          0.2527453192        1.8574601602        1.0734253905
 C          1.2144964794        2.3628209202        0.2082714107
 C          0.9007980697        3.4853251703       -0.5479041093
 C         -0.3528909503        4.0653380604       -0.4530931394
 C         -1.3240134605        3.5269598505        0.3717365904
 C         -1.0167356507        2.4078466104        1.1369238304
 N         -1.9759038009        1.7950143704        1.9705388102
 S         -2.3776388111        0.2057931405        1.6133134800
 O         -3.4435044413       -0.1268948394        2.5340398598
 O         -1.2029687612       -0.6242967096        1.6726144601
 C         -3.0358558708        0.2858782607       -0.0433312901
 C         -4.4063294708        0.2241387009       -0.2113416204
 C         -4.9362054306        0.3622704111       -1.4836379104
 C         -4.0909888704        0.5737752411       -2.5628821703
 C         -2.7193360604        0.6396768109       -2.3771538601
 C         -2.1805057506        0.4937372707       -1.1071770100
 H         -1.1139805407        0.5339059706       -0.9499002598
 H         -2.0509282803        0.8014308809       -3.2079190699
 H         -4.5016306102        0.6873686712       -3.5537167203
 H         -6.0031552406        0.3088832413       -1.6287111006
 H         -5.0229871410        0.0618960509        0.6579490095
 H         -2.8248126509        2.3340229205        2.0773174401
 H         -2.3100856704        3.9633104206        0.4240215403
 H         -0.5829196501        4.9377477805       -1.0452332794
 H          1.6364240498        3.9030364102       -1.2154535891
 C          2.5480587993        1.6576875000        0.1523218809
 H          3.0784026892        1.8602073099        1.0948376310
 C          3.4181859596        2.1001270600       -1.0058309890
 C          4.3104362097        3.2959420399       -0.8672875487
 C          4.9019180795        1.9197105198       -0.9040679088
 H          5.4461077096        1.6126230098       -1.7844350787
 H          5.2875011693        1.5009748997        0.0145658813
 H          4.4539479399        3.9352857799       -1.7252532287
 H          4.3048437396        3.8178294098        0.0777671113
 H          2.9569673997        1.9113391001       -1.9681821291
 O          1.0844403395        0.2374941504       -1.8872102595
