  62
        -98.92916460
 C         -2.7345538774       -0.4676023137        0.1219721232
 C         -2.2709059231        0.4265985485       -0.8732593801
 C         -2.0424927394        1.8252916443       -0.4471368429
 C         -2.3219423123        2.1849084775        0.8164882116
 C         -2.1136033170        3.5216883317        1.4796169385
 C         -0.7124893359        4.1267350841        1.2903758783
 C         -0.7157020550        5.3893377363        0.4284508568
 H         -1.5842739689        5.9935653140        0.6986996022
 H          0.1764524559        5.9748200732        0.6610860993
 C         -0.7226114432        5.1368872540       -1.0777812919
 H         -0.8561678225        6.1009046146       -1.5746945430
 H          0.2512408821        4.7449739350       -1.3801032162
 C         -1.8004674756        4.1735065120       -1.5812881981
 H         -2.7414984164        4.3379703907       -1.0587311984
 H         -1.9779986853        4.3992654242       -2.6352657580
 C         -1.4007215366        2.6941854471       -1.4946101291
 H         -1.6353588660        2.1977335300       -2.4425017316
 H         -0.3149431682        2.5985465127       -1.3764531816
 H         -0.0451600777        3.3760589168        0.8647313935
 H         -0.3203104626        4.3862983869        2.2751006706
 H         -2.8745327764        4.2211179056        1.1277306713
 H         -2.3077152782        3.3495191040        2.5403987448
 O         -2.8723312182        1.3134706401        1.7116278915
 C         -3.0331135915       -0.0242711723        1.4113125550
 O         -3.4631253996       -0.7142617449        2.3593095560
 H         -0.2854236338       -0.9937314572       -0.2752320493
 C         -0.3078888697       -1.9286660326        0.2627135417
 C         -1.5152748797       -2.5848380250        0.4569618983
 C         -1.5128311976       -3.7915935891        1.1461965835
 C         -0.3258672842       -4.3300130144        1.6127440483
 C          0.8729429750       -3.6674776338        1.4248805326
 C          0.8780978974       -2.4438925775        0.7608337136
 N          2.0653485310       -1.7073737861        0.6397146179
 S          2.1944328232       -0.3825209015       -0.3888390894
 O          1.3826409448        0.6923511996        0.1230976246
 O          1.9702676454       -0.7810278099       -1.7606137873
 C          3.9187752525       -0.0000676879       -0.1444808355
 C          4.8552393166       -0.4688489158       -1.0462574321
 C          6.1955472616       -0.1910092121       -0.8273542931
 C          6.5749982461        0.5449655633        0.2850116022
 C          5.6236667051        1.0108303712        1.1805558758
 C          4.2821127601        0.7370180325        0.9666732561
 H          3.5063580352        1.0846348116        1.6292087321
 H          5.9214034819        1.5855268882        2.0427010045
 H          7.6183571020        0.7597416618        0.4536776502
 H          6.9366649959       -0.5484440359       -1.5238951309
 H          4.5120488832       -1.0282727005       -1.9016723217
 H          2.9054432784       -2.2667345520        0.6652010447
 H          1.7952591524       -4.0797012124        1.8035508781
 H         -0.3356871185       -5.2727947806        2.1382105453
 H         -2.4485579267       -4.2985853179        1.3302206955
 C         -2.7987697147       -1.9755839596       -0.0582917926
 H         -3.6127037765       -2.3241564298        0.5986554786
 C         -3.1313150804       -2.4218072188       -1.4735654711
 C         -2.0959534242       -2.9182944561       -2.4325947889
 C         -3.0889802305       -3.8742632265       -1.8475289323
 H         -3.8689220301       -4.2608815857       -2.4857997560
 H         -2.7308578239       -4.5749122008       -1.1093246692
 H         -2.1904223811       -2.6256219542       -3.4669776744
 H         -1.0718656924       -2.9600919859       -2.0927258635
 H         -3.9360315969       -1.8327655754       -1.9005421744
 O         -2.0432609787        0.1007126861       -2.0671732216
