  62
        -98.94469684
 C         -1.7854308998       -0.7798891965       -0.1779824701
 C         -2.2892609214       -0.0456579401        0.9217367408
 C         -3.3366059068        0.9370951890        0.6148052469
 C         -3.7251472914        1.1053212439       -0.6627171705
 C         -4.8156426651        2.0341940935       -1.1100853691
 C         -6.1761400910        1.3234479714       -1.1346039147
 C         -6.4954040665        0.5545129268        0.1475183734
 H         -7.4903423684        0.1207197023        0.0268637238
 H         -5.7929152196       -0.2758178888        0.2491184214
 C         -6.4604655580        1.4060995671        1.4242711396
 H         -7.3372235474        1.1664641026        2.0295351335
 H         -6.5248482715        2.4638550490        1.1663142432
 C         -5.2329064343        1.1738385361        2.3068393277
 H         -5.4119389963        1.6546029422        3.2722665563
 H         -5.1120543775        0.1035145830        2.4916289539
 C         -3.9078781481        1.7217690262        1.7624219614
 H         -4.0287621891        2.7722727953        1.4893311270
 H         -3.1677984916        1.6588616384        2.5658438206
 H         -6.1822334054        0.6171892296       -1.9680259132
 H         -6.9514891436        2.0699116685       -1.3164141926
 H         -4.8540239880        2.8914122809       -0.4404089374
 H         -4.5790096091        2.3822397293       -2.1170836972
 O         -3.1906730307        0.4094013973       -1.6982653556
 C         -2.2090364519       -0.5493844250       -1.4871075284
 O         -1.8041285559       -1.1067727522       -2.5238067963
 H          0.3634184470        0.6194093977       -0.0247759212
 C          0.9841274451       -0.0948630687       -0.5517656824
 C          0.5768336929       -1.4217338633       -0.6232755105
 C          1.3937236537       -2.3265096753       -1.2883624072
 C          2.5710682949       -1.9051103673       -1.8836087927
 C          2.9626092104       -0.5808427195       -1.8251405577
 C          2.1577654590        0.3305688236       -1.1529601298
 N          2.5549903719        1.6788971785       -1.0714735636
 S          4.1085609448        1.9692645534       -0.5138563875
 O          4.0671067320        3.2940150293        0.0641651883
 O          5.0495407607        1.7799106890       -1.5890100098
 C          4.3705345306        0.7364365581        0.7481771594
 C          5.2950263250       -0.2690586215        0.5535484386
 C          5.4349771367       -1.2465174743        1.5259331126
 C          4.6473288336       -1.2052084556        2.6657176855
 C          3.7240183785       -0.1866985173        2.8476788052
 C          3.5815785381        0.7940355623        1.8801146262
 H          2.8759112606        1.6019146750        1.9930981697
 H          3.1098443292       -0.1559806321        3.7335277419
 H          4.7522197941       -1.9699365623        3.4190314401
 H          6.1528727164       -2.0389075049        1.3890898793
 H          5.8840313120       -0.2647283207       -0.3487634021
 H          1.8895449681        2.2656896400       -0.5897454012
 H          3.8714425633       -0.2344435341       -2.2898313196
 H          3.1912386218       -2.6190366242       -2.4034511907
 H          1.1060906135       -3.3631565448       -1.3467988638
 C         -0.7055005944       -1.8166268781        0.0684166133
 H         -0.5216282743       -1.7903365305        1.1534183255
 C         -1.1959543150       -3.1990858444       -0.3076929607
 C         -0.6918922378       -4.4068193129        0.4228233058
 C         -2.0946676117       -3.9292374123        0.6436776823
 H         -2.9104065924       -4.5101605990        0.2401247028
 H         -2.3287511616       -3.4406086087        1.5784362232
 H          0.0255430271       -4.2500335040        1.2138681123
 H         -0.5460860945       -5.3211315727       -0.1323710963
 H         -1.4095625400       -3.2900469776       -1.3666546687
 O         -1.8738592429       -0.1979470248        2.1028276366
