  62
        -98.94489123
 C         -2.1870681740       -1.0062508424        0.4923630177
 C         -2.2680293044       -0.1632562845       -0.6427738959
 C         -3.0155005400        1.0892759685       -0.4566867144
 C         -3.5281768994        1.3794405307        0.7529282315
 C         -4.3536599185        2.5928115515        1.0668353638
 C         -5.8500948875        2.3159502380        0.8639717543
 C         -6.1817970647        1.6605851074       -0.4766115367
 H         -5.7464208796        0.6590911270       -0.5010310029
 H         -7.2664303070        1.5413089572       -0.5199291970
 C         -5.7049219307        2.4490925205       -1.7042986759
 H         -6.5101709845        2.4704981212       -2.4414974659
 H         -5.4953160051        3.4818275882       -1.4233698851
 C         -4.4790387549        1.8562861066       -2.4016287120
 H         -4.3597020990        2.3577787220       -3.3656310516
 H         -4.6486571852        0.7956822117       -2.6030538936
 C         -3.1506048342        1.9959714804       -1.6473104252
 H         -2.3448498237        1.7115685262       -2.3309513490
 H         -2.9982902882        3.0379730791       -1.3574049768
 H         -6.1902043563        1.6529415975        1.6627803695
 H         -6.3896766163        3.2605039344        0.9531648888
 H         -4.1812697306        2.8657833972        2.1094426649
 H         -4.0350586798        3.4157946098        0.4297596710
 O         -3.3857640599        0.5674281091        1.8322577171
 C         -2.7154994300       -0.6414297140        1.7295731963
 O         -2.6491192199       -1.2851621424        2.7973592227
 H          0.1856732269       -0.6319518295        1.6122203219
 C          0.6933788211       -1.1259107190        0.7914730601
 C         -0.0020514786       -2.0637406564        0.0372608936
 C          0.6587352498       -2.6908054752       -1.0097920067
 C          1.9733837079       -2.3677659949       -1.3007697663
 C          2.6571739607       -1.4261242082       -0.5543777547
 C          2.0082582345       -0.8000412664        0.5022224684
 N          2.7002699282        0.1532514361        1.2760875529
 S          3.3363634378        1.4771495065        0.4550654478
 O          3.4356335810        2.5247458966        1.4489501311
 O          2.5704411645        1.7868259083       -0.7302940526
 C          4.9759715940        0.9471191440        0.0074109074
 C          5.3652252887        0.9570438989       -1.3175755047
 C          6.6495714766        0.5472222669       -1.6410135734
 C          7.5162338438        0.1375942202       -0.6392917479
 C          7.1099264713        0.1352874395        0.6869916286
 C          5.8280953397        0.5449411390        1.0174106377
 H          5.4730032571        0.5623683276        2.0342306597
 H          7.7865998216       -0.1842279767        1.4630245529
 H          8.5144682363       -0.1817387461       -0.8938874963
 H          6.9669113787        0.5483493485       -2.6714052860
 H          4.6536687277        1.2774584788       -2.0618899934
 H          2.1704926332        0.4736428164        2.0747626353
 H          3.6786280946       -1.1686151757       -0.7822344230
 H          2.4719936996       -2.8561328918       -2.1240118123
 H          0.1410675270       -3.4221835238       -1.6080076582
 C         -1.4433946187       -2.3278543580        0.4015959710
 H         -1.4651878926       -2.7589043502        1.4132203648
 C         -2.1519931016       -3.2707637726       -0.5472674592
 C         -2.0185213333       -4.7530151693       -0.3736520566
 C         -3.3106941477       -4.0725103020       -0.0382659577
 H         -4.1592779335       -4.2227085699       -0.6886922327
 H         -3.5751968952       -3.9557367873        1.0029195980
 H         -1.9826847343       -5.3745582526       -1.2554578409
 H         -1.4067437268       -5.1072008584        0.4420695319
 H         -2.2217843684       -2.8743322398       -1.5535195192
 O         -1.7471205413       -0.4411083811       -1.7537919381
