  62
        -98.94683932
 C          1.8186039809        1.3142849041       -0.0598807817
 C          2.8884571345        0.5831896685        0.5131094568
 C          3.2460944971       -0.6766786501       -0.1499205143
 C          2.5481564344       -1.0724931174       -1.2293783483
 C          2.7829263412       -2.3475214787       -1.9854863308
 C          1.8952797437       -3.4818890532       -1.4570078997
 C          1.9362804997       -3.6438209866        0.0626537816
 H          1.3126926417       -4.5057632238        0.3126874701
 H          1.4609371929       -2.7744940991        0.5244810634
 C          3.3420983655       -3.8445484406        0.6461845473
 H          4.0257357682       -4.1697429654       -0.1393501952
 H          3.2972016535       -4.6438514410        1.3891047719
 C          3.9249846033       -2.6178944816        1.3508742187
 H          4.7964599060       -2.9394787924        1.9278975329
 H          3.1903622238       -2.2235945181        2.0583398074
 C          4.3776124876       -1.4719063203        0.4370122759
 H          5.0270735919       -1.8620705737       -0.3494574572
 H          4.9557330614       -0.7696354498        1.0450162014
 H          2.2051526690       -4.4138356152       -1.9345734565
 H          0.8606109884       -3.2766411457       -1.7421287362
 H          2.5444393994       -2.1723214455       -3.0362371997
 H          3.8322569180       -2.6244401029       -1.9021043864
 O          1.5167443046       -0.3582563600       -1.7405930750
 C          1.0954682420        0.8217751891       -1.1464726468
 O          0.0921375539        1.3243166054       -1.6881883323
 H          0.0453051291        0.6001475685        1.7694660116
 C         -0.6288125645        1.3860434430        1.4599101114
 C         -0.1207196383        2.5295374312        0.8550886413
 C         -1.0094767982        3.5246439403        0.4714733149
 C         -2.3705835254        3.3626729554        0.6701227367
 C         -2.8744847177        2.1997433511        1.2227512128
 C         -1.9911011048        1.1989139813        1.6110158095
 N         -2.4413504073       -0.0301046118        2.1407441781
 S         -2.1564317012       -1.3878688394        1.1946595507
 O         -2.6804542178       -2.4995601543        1.9598151510
 O         -0.7633266440       -1.4562920700        0.8411519440
 C         -3.1816375127       -1.1349083438       -0.2436091998
 C         -2.7614393150       -0.2710526009       -1.2350200747
 C         -3.6100260949       -0.0259203784       -2.3048022759
 C         -4.8514432873       -0.6395443246       -2.3643525040
 C         -5.2571715845       -1.5048426325       -1.3590181097
 C         -4.4181815970       -1.7514525504       -0.2850149093
 H         -4.6877152094       -2.4168176459        0.5194191487
 H         -6.2219120689       -1.9836851606       -1.4074381608
 H         -5.5047872875       -0.4425065386       -3.1996905523
 H         -3.2865068510        0.6482374512       -3.0816638338
 H         -1.7893880622        0.1948058254       -1.1758989476
 H         -3.4149310955       -0.0217629745        2.4147133178
 H         -3.9381298571        2.0605020533        1.3459061221
 H         -3.0500166620        4.1441691951        0.3659038872
 H         -0.6411200213        4.4181940250       -0.0050822718
 C          1.3711392508        2.5862483576        0.6408235098
 H          1.8571588086        2.5351934663        1.6303372915
 C          1.8493750872        3.8749418950       -0.0098006571
 C          3.0733150031        3.8944921979       -0.8746620160
 C          1.7234571826        4.1236989774       -1.4819391432
 H          1.4759421332        5.1217367906       -1.8128857464
 H          1.2890809776        3.3413540216       -2.0835387878
 H          3.5663228972        2.9517376641       -1.0641240658
 H          3.7501264749        4.7311320017       -0.7864485424
 H          1.7130095314        4.7323548865        0.6422196247
 O          3.5150265925        0.9683850805        1.5380894028
