  62
        -98.93769465
 C         -1.8069438564       -0.9269565357       -0.1258519903
 C         -2.3905522017       -0.2032581456        0.9401748650
 C         -3.5219641094        0.6683058194        0.5910269131
 C         -3.9035445425        0.7601818830       -0.6961898053
 C         -5.0843300586        1.5402191521       -1.2003475941
 C         -6.3874118678        0.7698026950       -0.9057252145
 C         -7.3204570442        1.4640518278        0.0866740080
 H         -7.8235856340        2.2912817050       -0.4184234166
 H         -8.0857341996        0.7409436302        0.3767031830
 C         -6.6569646262        2.0211587342        1.3498905030
 H         -6.1776130920        2.9747012759        1.1229293965
 H         -7.4577553682        2.2373824079        2.0602932336
 C         -5.6307603822        1.1051048415        2.0289556953
 H         -5.8236625493        0.0612316418        1.7807990805
 H         -5.7517011213        1.2027542184        3.1097837016
 C         -4.1618658656        1.4416088798        1.7110540325
 H         -4.0671637874        2.5137838178        1.5164150849
 H         -3.5535475326        1.2134237766        2.5914690188
 H         -6.9346302860        0.6121294572       -1.8363089229
 H         -6.1218806068       -0.2192144501       -0.5264820495
 H         -5.1051747263        2.5217131290       -0.7316864074
 H         -4.9531964598        1.6694336563       -2.2749290926
 O         -3.2905909606        0.0803642951       -1.6994467369
 C         -2.2291460671       -0.7773776421       -1.4467661754
 O         -1.7620670394       -1.3284826546       -2.4601070772
 H          0.3417669333        0.5945814090        0.2889893782
 C          0.9622629113       -0.0363382090       -0.3355615899
 C          0.5998915395       -1.3654759173       -0.5227464655
 C          1.4130295508       -2.1673174771       -1.3116669485
 C          2.5391218964       -1.6394473846       -1.9212821118
 C          2.8847589202       -0.3124768505       -1.7491732607
 C          2.0885711384        0.4937245234       -0.9442442299
 N          2.4444430620        1.8382909131       -0.7416462774
 S          4.0470904618        2.1690941246       -0.3881076895
 O          4.0208591029        3.3878312198        0.3901598450
 O          4.8120244855        2.2209331240       -1.6090864089
 C          4.5975887050        0.7963069472        0.6102577067
 C          3.9406655994        0.5523360026        1.8002202195
 C          4.3294069098       -0.5314199420        2.5703871781
 C          5.3633697790       -1.3489382539        2.1397476749
 C          6.0167291964       -1.0872818334        0.9457150548
 C          5.6304395988       -0.0058511510        0.1700248578
 H          6.1078974455        0.2316065148       -0.7665743804
 H          6.8218333768       -1.7230684706        0.6146413967
 H          5.6610849101       -2.1935715518        2.7407795673
 H          3.8211338639       -0.7356601537        3.4991923130
 H          3.1419426064        1.2074038012        2.1102102146
 H          1.8218499332        2.3380034252       -0.1243479632
 H          3.7493313893        0.1161017085       -2.2295251774
 H          3.1547734808       -2.2711873882       -2.5429191429
 H          1.1602942728       -3.2038096976       -1.4604967722
 C         -0.6462350998       -1.8600927457        0.1699043169
 H         -0.4821790705       -1.7828432867        1.2550609443
 C         -1.0081361976       -3.2905458870       -0.1668463160
 C         -0.3498164070       -4.4242338628        0.5594540496
 C         -1.7856456029       -4.0934945216        0.8312524403
 H         -2.5499291894       -4.7649102673        0.4695195912
 H         -2.0339736956       -3.6156429295        1.7678369113
 H         -0.1286499869       -5.3280683809        0.0122934061
 H          0.3783939429       -4.1764031592        1.3165394629
 H         -1.2534615338       -3.4232922101       -1.2143499851
 O         -1.9775876575       -0.2769088910        2.1300781144
