  62
        -98.93282529
 C         -2.1302324206       -0.8755718702        0.1184359045
 C         -3.0106281406       -0.2535546199        1.0385358478
 C         -3.8834817665        0.7976455661        0.4989222786
 C         -3.7615274110        1.1627026046       -0.7896429513
 C         -4.5274423131        2.2504642445       -1.4954276958
 C         -6.0450585584        2.0292826851       -1.6440545154
 C         -6.8888529036        2.6652219877       -0.5322513182
 H         -6.3265233375        3.4898689738       -0.0924094952
 H         -7.7857895809        3.1003358610       -0.9775893948
 C         -7.3562381715        1.7171129919        0.5762312333
 H         -7.7182259084        2.3265547284        1.4071262402
 H         -8.1996163986        1.1275805764        0.2095255106
 C         -6.3075838706        0.7367440105        1.1020981923
 H         -6.1611856394       -0.0674588293        0.3768450542
 H         -6.7016173734        0.2679605765        2.0060747662
 C         -4.9342762225        1.3658328896        1.4077720030
 H         -4.9778820818        2.4500679956        1.3145078339
 H         -4.6301102370        1.1202194900        2.4274681009
 H         -6.3379039675        2.4803192928       -2.5934356765
 H         -6.2518815582        0.9618750266       -1.7169562133
 H         -4.3485324963        3.1963937597       -0.9789130667
 H         -4.0787639711        2.3229267130       -2.4882529075
 O         -2.8515644901        0.5906679839       -1.6233218809
 C         -2.0237986806       -0.4442075996       -1.2049190491
 O         -1.2573909718       -0.8627658841       -2.0906344354
 O         -3.0562763373       -0.5544779704        2.2620881649
 C         -1.2360910085       -1.9854734765        0.6400457706
 C          0.1911052043       -1.7620951596        0.2056090130
 C          0.9348741451       -2.6892304892       -0.5109543415
 C          2.2455116863       -2.4146509249       -0.8617440982
 C          2.8406651162       -1.2179732223       -0.5100845094
 C          2.1072877755       -0.2833237539        0.2097347410
 C          0.7986225317       -0.5651002290        0.5675199667
 H          0.2267923290        0.1645058754        1.1296141754
 N          2.7010051164        0.9437820588        0.5588122902
 S          4.1719433555        0.9023891972        1.3687191841
 O          4.3059999175       -0.3007991999        2.1574251761
 O          4.2411888418        2.1545155445        2.0905163615
 C          5.3836509855        0.9159435963        0.0647351992
 C          5.3589455358        1.9622489154       -0.8363982540
 C          6.2983360662        1.9900233585       -1.8546764112
 C          7.2423881085        0.9785142571       -1.9523559546
 C          7.2562705616       -0.0629564876       -1.0372708819
 C          6.3189249769       -0.0970639492       -0.0165264266
 H          6.2872386752       -0.8890062863        0.7146377010
 H          7.9911566956       -0.8480057651       -1.1148668651
 H          7.9715694978        1.0024922621       -2.7467121720
 H          6.2906209546        2.7981242210       -2.5683030841
 H          4.6110655371        2.7294067020       -0.7235220843
 H          2.0673432435        1.5846724897        1.0141554996
 H          3.8581122834       -0.9987023672       -0.7895716684
 H          2.8095556628       -3.1422045065       -1.4251451262
 H          0.4836247465       -3.6195274076       -0.8135992912
 H         -1.2710957798       -1.8674464519        1.7369287628
 C         -1.7462153813       -3.3881435117        0.3445554486
 C         -3.2072290190       -3.6516033418        0.1388937825
 C         -2.2527491651       -3.7900422369       -1.0070441739
 H         -2.0249326647       -4.7836989687       -1.3643187023
 H         -2.2602473278       -3.0384752651       -1.7805062549
 H         -3.6322449575       -4.5460089561        0.5691935378
 H         -3.8755217275       -2.8026773295        0.1493704184
 H         -1.1996493384       -4.1415371530        0.9036802915
