  62
        -98.93556518
 C          2.4017058412        1.1609766066       -0.1136329568
 C          2.4385774750       -0.1663910435       -0.6078115256
 C          3.7788790088       -0.7057288681       -0.8922449705
 C          4.8628561191        0.0613264717       -0.6810648700
 C          6.2827112070       -0.3806969280       -0.8832446206
 C          6.8695164359       -0.9685253316        0.4077183839
 C          5.9723849782       -2.0112823011        1.0747243862
 H          6.5012069192       -2.3782817557        1.9570955552
 H          5.0599944582       -1.5243540183        1.4269827248
 C          5.5971396271       -3.1960098430        0.1735797689
 H          6.2855099219       -3.2518050469       -0.6704870459
 H          5.7098388420       -4.1195074160        0.7454037872
 C          4.1586460659       -3.1674822275       -0.3467127019
 H          3.4688981262       -3.0155718223        0.4875713079
 H          3.9353760975       -4.1454121947       -0.7814013085
 C          3.8565829891       -2.1116376046       -1.4176733639
 H          4.5900809911       -2.1832024502       -2.2233074174
 H          2.8677825641       -2.3320597726       -1.8303889816
 H          7.8382135174       -1.4143787594        0.1749359405
 H          7.0320364030       -0.1531787948        1.1165088339
 H          6.3176661547       -1.1201609902       -1.6807937938
 H          6.8743205272        0.4876017436       -1.1782544106
 O          4.7882603945        1.3292587322       -0.2006093119
 C          3.5660068686        1.8984654589        0.1159429222
 O          3.6464579471        3.0486887675        0.5921077898
 H         -1.4594214045        0.9223500291       -0.3286313969
 C         -1.0660069137        0.5389158246        0.5962678650
 C          0.2058397253        0.8900751098        1.0192521565
 C          0.6856965853        0.3543539967        2.2120139955
 C         -0.0856140662       -0.5148459664        2.9573771469
 C         -1.3627532942       -0.8474107627        2.5408902081
 C         -1.8531686183       -0.3171892156        1.3543824625
 N         -3.1423139570       -0.6661640604        0.8972507083
 S         -4.2703299514        0.5430942298        0.5651032230
 O         -3.6997546884        1.5234018524       -0.3201259939
 O         -4.8178526700        1.0505928220        1.8082246848
 C         -5.5076442862       -0.4066000749       -0.2959257263
 C         -5.1952520733       -0.8793470874       -1.5560906611
 C         -6.1365358151       -1.6303902009       -2.2412521994
 C         -7.3672728222       -1.8944724198       -1.6578900398
 C         -7.6658593276       -1.4127215607       -0.3926977854
 C         -6.7279453924       -0.6613624695        0.2985245931
 H         -6.9179746798       -0.2617776405        1.2816097166
 H         -8.6239382662       -1.6186383752        0.0567863599
 H         -8.0981260185       -2.4786082596       -2.1945068786
 H         -5.9079457155       -2.0064588892       -3.2255564105
 H         -4.2283563535       -0.6467652119       -1.9717526340
 H         -3.5843692771       -1.3353662773        1.5154891024
 H         -1.9713876295       -1.5207336236        3.1264959437
 H          0.3044443960       -0.9300469502        3.8748755261
 H          1.6810212538        0.6237765764        2.5412237173
 C          1.0920384675        1.8390411077        0.2496600394
 H          1.3749949219        2.6556582944        0.9360235616
 C          0.3845969194        2.4934863521       -0.9276570509
 C          1.1567168321        3.0313127400       -2.0941127062
 C          0.2780674821        1.8307252497       -2.2666311201
 H         -0.6446826415        1.9448120643       -2.8168812794
 H          0.7406632517        0.8636030906       -2.3829092642
 H          0.8417119740        3.9688890113       -2.5270246437
 H          2.2276910766        2.8883340844       -2.0941303694
 H         -0.4727856669        3.0796516857       -0.6084042574
 O          1.4186427767       -0.8747898363       -0.8061209695
