  62
        -98.94304304
 C         -1.9387942751       -0.0469324471       -0.2983732407
 C         -2.8179102367        0.7130528064        0.5120579628
 C         -4.1261751484        0.1001587998        0.7824743868
 C         -4.4094749550       -1.1261209539        0.3100494220
 C         -5.6862544199       -1.8908504505        0.5307024536
 C         -6.8093118768       -1.5250381483       -0.4495068669
 C         -7.4543479962       -0.1578292465       -0.2186507100
 H         -8.3592224812       -0.1240357945       -0.8287380541
 H         -7.7617840889       -0.0742843145        0.8242223117
 C         -6.5624339018        1.0344551874       -0.5920796761
 H         -5.7465624642        0.6920917396       -1.2329279706
 H         -7.1430545668        1.7555267585       -1.1719140512
 C         -5.9723228920        1.7836012004        0.6026551460
 H         -5.3313544342        2.5828550487        0.2224379607
 H         -6.7772338952        2.2429643958        1.1806459220
 C         -5.1326376114        0.9098188216        1.5435706100
 H         -4.5852089205        1.5661185640        2.2242053708
 H         -5.7799394979        0.2584732542        2.1301404116
 H         -6.4144019008       -1.5751147682       -1.4669804551
 H         -7.5844057290       -2.2893350113       -0.3566330577
 H         -5.4422638687       -2.9469819086        0.3964476326
 H         -6.0315484991       -1.7415183309        1.5541201731
 O         -3.5244435663       -1.8416621768       -0.4343449627
 C         -2.2907758062       -1.3141490438       -0.7736359598
 O         -1.6014464433       -2.0619389651       -1.4977920339
 O         -2.5509976998        1.8431524069        0.9969731593
 C         -0.5588709069        0.4414069674       -0.7139685764
 C          0.4456999874        0.2160349174        0.3907979319
 C          0.3667757813        0.8996946365        1.6004808845
 C          1.2922891390        0.6628677298        2.5995089115
 C          2.3227586211       -0.2413402315        2.4077779158
 C          2.4107915949       -0.9292400319        1.2042504870
 C          1.4702975534       -0.7016418342        0.2081150078
 H          1.5429007912       -1.2563259243       -0.7156896508
 N          3.4475399284       -1.8553161229        0.9766597950
 S          4.4279302407       -1.6391706482       -0.3627688269
 O          3.6689543238       -1.8364871742       -1.5703261744
 O          5.5477993148       -2.5288186703       -0.1513512428
 C          4.9670113328        0.0567566056       -0.2374406681
 C          4.1550281893        1.0587597143       -0.7303485230
 C          4.5389654543        2.3785750389       -0.5536958323
 C          5.7222331977        2.6723015838        0.1064112612
 C          6.5295419663        1.6543702839        0.5913695617
 C          6.1472383711        0.3331262904        0.4250046810
 H          6.7448758217       -0.4898108225        0.7825422730
 H          7.4511537445        1.8858740546        1.1006143721
 H          6.0165337116        3.7010448433        0.2418041293
 H          3.9089969519        3.1684762169       -0.9298973183
 H          3.2434448087        0.7939301467       -1.2403055798
 H          4.0200859809       -2.0318524461        1.7904426868
 H          3.0482205408       -0.4216894202        3.1867738662
 H          1.2156021882        1.1937403301        3.5361455730
 H         -0.4397352143        1.5992807762        1.7556387458
 H         -0.2660800168       -0.1941362561       -1.5612850862
 C         -0.5549805362        1.8851014530       -1.1775491361
 C          0.4971523856        2.3358155610       -2.1435062910
 C         -0.9253059892        2.1953153738       -2.5950364395
 H         -1.4974783881        3.0887367505       -2.7949124259
 H         -1.1758463625        1.3642163150       -3.2391403369
 H          0.9043888315        3.3292045217       -2.0360549573
 H          1.2079092613        1.6007369213       -2.4921426725
 H         -0.8780670206        2.5843992979       -0.4184529811
