  62
        -98.94496234
 C         -1.8794917946       -0.7342945233       -0.1586592869
 C         -2.4414104502       -0.0963438517        0.9723637314
 C         -3.5055319483        0.8785067510        0.6993163795
 C         -3.8484467811        1.1363937796       -0.5762793841
 C         -4.9468255564        2.0690809483       -0.9956410261
 C         -6.2826396760        1.3261098040       -1.1378458940
 C         -6.6312165252        0.4467403548        0.0630698817
 H         -7.6067705758       -0.0022420017       -0.1353263028
 H         -5.9087435038       -0.3699733418        0.1281270426
 C         -6.6746952983        1.1920659397        1.4044154478
 H         -6.7620469323        2.2650689575        1.2296451458
 H         -7.5673268238        0.8792155978        1.9501560900
 C         -5.4776374004        0.9233976975        2.3182197169
 H         -5.3305095790       -0.1546670010        2.4209727599
 H         -5.7121043979        1.3177794981        3.3105792875
 C         -4.1488563591        1.5515203625        1.8792793220
 H         -4.2914646656        2.6168540164        1.6858624930
 H         -3.4417594645        1.4448180643        2.7073673767
 H         -7.0723623394        2.0634533989       -1.2931041981
 H         -6.2319838843        0.6904553725       -2.0248820630
 H         -5.0395732087        2.8673679466       -0.2616416111
 H         -4.6784363275        2.5042392191       -1.9598638480
 O         -3.2547638937        0.5370287831       -1.6394779817
 C         -2.2617148594       -0.4165320271       -1.4623168859
 O         -1.8095952111       -0.8898328322       -2.5209908853
 H          0.3300496816        0.6215563535        0.3052309788
 C          0.9259892713       -0.0126514234       -0.3395962570
 C          0.4944485629       -1.3087878352       -0.5971440162
 C          1.2780922043       -2.1164930985       -1.4099215832
 C          2.4419541886       -1.6234492302       -1.9759046532
 C          2.8543943527       -0.3261599646       -1.7374246773
 C          2.0885410290        0.4839288640       -0.9074183961
 N          2.5069055841        1.7985119664       -0.6422799824
 S          4.1233187128        2.0544768200       -0.2949708988
 O          4.1494002423        3.2416024118        0.5307072740
 O          4.8784280801        2.1263370091       -1.5211107876
 C          4.6346667141        0.6258694855        0.6440175194
 C          5.6449306778       -0.1853931659        0.1692989518
 C          6.0055022671       -1.3052736839        0.9016303910
 C          5.3496111751       -1.5950612164        2.0877372281
 C          4.3383068403       -0.7683136340        2.5532648396
 C          3.9753958527        0.3537529180        1.8265360110
 H          3.1955960734        1.0175014527        2.1649363791
 H          3.8279511998       -0.9946770887        3.4757507648
 H          5.6269959810       -2.4695465270        2.6548269724
 H          6.7927894357       -1.9485440691        0.5431453360
 H          6.1258127460        0.0755111696       -0.7593216806
 H          1.9071142492        2.3023705834       -0.0063248004
 H          3.7465590591        0.0777294109       -2.1876861397
 H          3.0339508850       -2.2584005807       -2.6169324301
 H          0.9728413884       -3.1297252564       -1.6115282084
 C         -0.7889687741       -1.7695903787        0.0492774315
 H         -0.6266819653       -1.8052499803        1.1370423933
 C         -1.2530272320       -3.1328270700       -0.4178503478
 C         -0.7081927099       -4.3749774083        0.2195908379
 C         -2.1193893126       -3.9508843439        0.4908881986
 H         -2.9255576348       -4.5236021065        0.0574132369
 H         -2.3530675816       -3.5350640796        1.4603296499
 H         -0.5466615616       -5.2440975451       -0.3999453286
 H          0.0169574939       -4.2542197577        1.0098656896
 H         -1.4797218204       -3.1546515262       -1.4778195873
 O         -2.0634164694       -0.3248026728        2.1538960334
