  62
        -98.93802442
 C         -2.6458736498       -1.0218058509       -0.2072144624
 C         -2.3162027589       -0.0099574021       -1.1449669641
 C         -2.9061345944        1.3137056773       -0.8818188380
 C         -3.7502190935        1.4883629066        0.1494921560
 C         -4.4674067808        2.7618439046        0.5090173110
 C         -3.6426886965        3.7262189222        1.3715667382
 C         -2.5009294797        4.4328221437        0.6404251764
 H         -2.8855015230        4.9019143250       -0.2657085105
 H         -2.1440536636        5.2301967948        1.2952054021
 C         -1.3193242579        3.5192938849        0.2859613398
 H         -1.3698133038        2.6026167541        0.8786923847
 H         -0.3804613280        4.0111943397        0.5491065099
 C         -1.2225158025        3.1396549413       -1.1917301019
 H         -0.3740436194        2.4590289001       -1.3056972543
 H         -1.0202187580        4.0329836782       -1.7877781041
 C         -2.4744050910        2.4528908316       -1.7544871465
 H         -3.2824153201        3.1764548489       -1.8671124934
 H         -2.2280342986        2.0441133649       -2.7377568919
 H         -4.3268051306        4.4863119624        1.7559055952
 H         -3.2418460894        3.1751867715        2.2253772704
 H         -4.7869297154        3.2693729744       -0.4015822371
 H         -5.3544507695        2.4671460951        1.0739662198
 O         -4.0834155721        0.4768296894        0.9960331500
 C         -3.5079509778       -0.7750273193        0.8645989871
 O         -3.8569947374       -1.5892116649        1.7443422881
 O         -1.5917332551       -0.1770459185       -2.1587116627
 C         -2.0678634167       -2.4270591399       -0.2424426184
 C         -0.8227577343       -2.5042327345        0.6052534595
 C         -0.6338498629       -3.5573309320        1.4932950810
 C          0.5130523493       -3.6315880486        2.2632138142
 C          1.4957924655       -2.6652079907        2.1529287783
 C          1.3116136627       -1.6008132134        1.2766473727
 C          0.1551497567       -1.5239548060        0.5139437920
 H          0.0273693369       -0.6933989944       -0.1639923101
 N          2.2759233142       -0.5863683748        1.1703416204
 S          2.5326080374        0.1066251938       -0.3518575212
 O          1.5952164825        1.1823780787       -0.5382979116
 O          2.5598220990       -0.9297490171       -1.3582182838
 C          4.1688210299        0.7770751544       -0.1167541143
 C          5.2669208749        0.0445340410       -0.5260066785
 C          6.5354116078        0.5594329961       -0.3088558152
 C          6.6835913217        1.7897704047        0.3136470511
 C          5.5719577509        2.5140808483        0.7180738669
 C          4.3009744664        2.0054622505        0.5026231814
 H          3.4074587593        2.5348705749        0.7901349619
 H          5.6906031281        3.4717114991        1.1987336641
 H          7.6715307297        2.1883265993        0.4818570966
 H          7.4011323412        0.0004800304       -0.6255602614
 H          5.1021071051       -0.9025901072       -1.0141967125
 H          3.1480564325       -0.8246019587        1.6230025552
 H          2.3943964297       -2.7240641503        2.7481257002
 H          0.6465103445       -4.4532067685        2.9503926927
 H         -1.4014293856       -4.3116643944        1.5860947825
 H         -2.8275440105       -3.0679821992        0.2351139349
 C         -1.8485590402       -2.9674907318       -1.6480110336
 C         -0.5099921039       -3.0335902005       -2.3127191078
 C         -1.1747383007       -4.2931545108       -1.8494999380
 H         -1.5756556118       -4.9681587665       -2.5904342330
 H         -0.7650314592       -4.7819505139       -0.9784882877
 H         -0.4714842012       -2.8206987135       -3.3704526861
 H          0.3536672504       -2.6665710419       -1.7786002163
 H         -2.6910998145       -2.7462829149       -2.2958313291
