  62
        -98.94269104
 C         -2.6982929789       -1.2332772206        0.1221622207
 C         -2.5716520692       -0.2716290805       -0.9093297393
 C         -3.6138408295        0.7647922993       -0.9470997291
 C         -4.6139457094        0.7302922490       -0.0480674090
 C         -5.6970818496        1.7622085887        0.0695136712
 C         -5.2965181797        2.8725468588        1.0515175712
 C         -3.9005774499        3.4448226491        0.8036049310
 H         -3.7404238500        4.2379539992        1.5371829110
 H         -3.1560127797        2.6700254093        1.0014673509
 C         -3.6848265802        4.0047150192       -0.6093835190
 H         -3.1749537904        4.9670902794       -0.5299909191
 H         -4.6484478403        4.1871548290       -1.0865236389
 C         -2.8285662401        3.1209066695       -1.5182779592
 H         -2.5608761804        3.7028753396       -2.4041709092
 H         -1.8995551100        2.8581217297       -1.0056475593
 C         -3.4917274599        1.8259075593       -2.0040712491
 H         -4.4666149900        2.0512341991       -2.4408606090
 H         -2.8547622799        1.3990248795       -2.7842622692
 H         -5.3233499995        2.4642965688        2.0645267412
 H         -6.0363102099        3.6726302486        0.9882698813
 H         -5.8977362398        2.1857314187       -0.9125616188
 H         -6.6011021294        1.2734149185        0.4364620313
 O         -4.7215929890       -0.2320348610        0.9039108410
 C         -3.7586727388       -1.2190595808        1.0290404708
 O         -3.9560294885       -2.0147912209        1.9697249408
 H          0.6973475112       -2.1623959597       -1.1745766398
 C          0.7551468512       -1.6335634497       -0.2366030498
 C         -0.3304549587       -1.6281472400        0.6221968804
 C         -0.2260861987       -0.9319361500        1.8245251204
 C          0.9313180312       -0.2519834498        2.1480291003
 C          2.0072666110       -0.2400851795        1.2760975801
 C          1.9162021410       -0.9345889695        0.0783637701
 N          2.9794505209       -0.9041559992       -0.8304841200
 S          4.5697692810       -0.8540406088       -0.3304618602
 O          5.3337377809       -1.2822921086       -1.4816105004
 O          4.7733644113       -1.6068706288        0.8856350097
 C          4.8772025706        0.8755772212       -0.0365759902
 C          5.5295345207        1.2701900213        1.1150454597
 C          5.7734272904        2.6194186914        1.3193880997
 C          5.3636921400        3.5456403213        0.3727894598
 C          4.7119537600        3.1330414412       -0.7798467801
 C          4.4666224703        1.7856482512       -0.9907488701
 H          3.9607346302        1.4287833811       -1.8725103001
 H          4.3922859397        3.8559229712       -1.5132252601
 H          5.5522617498        4.5952678514        0.5341862598
 H          6.2799188304        2.9421663015        2.2148034796
 H          5.8232624409        0.5163730714        1.8282016096
 H          2.8440314309       -1.4488372992       -1.6678877400
 H          2.9108539509        0.2932293707        1.5214608900
 H          0.9975309912        0.2818729502        3.0840468903
 H         -1.0727618886       -0.9293145402        2.4981389805
 C         -1.6390786486       -2.3087522303        0.3005815305
 H         -1.9445853883       -2.8935303604        1.1793242806
 C         -1.5865408185       -3.2274390203       -0.9009411995
 C         -0.9616748882       -4.5833765401       -0.7725132096
 C         -2.4475995983       -4.4528519905       -0.9173413294
 H         -2.9035603283       -4.7497717805       -1.8499355694
 H         -3.0659835581       -4.6387501706       -0.0512341093
 H         -0.3977988082       -4.9750308500       -1.6057728797
 H         -0.5683085580       -4.8618711101        0.1936295903
 H         -1.4654529488       -2.6947847602       -1.8366493795
 O         -1.6403976393       -0.2710482803       -1.7558174394
