  62
        -98.94011850
 C         -1.9858866654       -1.4905534804       -0.0533684449
 C         -1.7805325282       -0.2117141774       -0.6201024775
 C         -2.9803340360        0.6258064218       -0.7874369013
 C         -4.1807199153        0.1386139098       -0.4294738878
 C         -5.5295883527        0.8024380770       -0.5471508005
 C         -5.6297711483        2.2741065649       -0.1186509588
 C         -4.6735368129        2.6923976966        1.0080693009
 H         -5.2447700208        3.2055943280        1.7839937957
 H         -4.2236619684        1.8099065826        1.4660649963
 C         -3.5704833415        3.6415373776        0.5333870950
 H         -4.0134775108        4.3826586919       -0.1355502436
 H         -3.1738219985        4.1781517413        1.3985354783
 C         -2.3854486510        2.9790685742       -0.1692989695
 H         -1.7866774460        2.4224931067        0.5571397490
 H         -1.7523047338        3.7744135209       -0.5705923748
 C         -2.7459869290        2.0139340483       -1.3104022624
 H         -3.5969161910        2.3779006458       -1.8811984289
 H         -1.8829702962        1.9429435709       -1.9783748786
 H         -5.4608489025        2.9163836837       -0.9819818871
 H         -6.6605035863        2.4406410790        0.1987442604
 H         -5.8675367830        0.7071419219       -1.5830482113
 H         -6.1992112410        0.1952786613        0.0665546333
 O         -4.3345315411       -1.1115034750        0.0929651580
 C         -3.2522798530       -1.9474968986        0.3060835424
 O         -3.5418476809       -3.0484274703        0.8170790038
 H          1.9196488449       -2.0812755207       -0.2524505142
 C          1.5693907417       -1.6408608713        0.6654706245
 C          0.2334260534       -1.7140742525        1.0252502143
 C         -0.1666850907       -1.1305918682        2.2257606512
 C          0.7433585633       -0.4782869428        3.0337995345
 C          2.0729149433       -0.3860231859        2.6585186991
 C          2.4847326401       -0.9705582418        1.4679837404
 N          3.8340895029       -0.9169775703        1.0720573073
 S          4.2497679917       -0.3106677274       -0.4330202230
 O          3.6409430712       -1.1041400984       -1.4681289872
 O          5.6964219566       -0.2767862564       -0.4221401665
 C          3.6201882661        1.3584869258       -0.4477077433
 C          2.2706118355        1.5773358734       -0.6373475005
 C          1.7955236862        2.8789672502       -0.5852977050
 C          2.6658158904        3.9310737349       -0.3489815552
 C          4.0193891322        3.6927400363       -0.1616015159
 C          4.5017225390        2.3951613200       -0.2053688045
 H          5.5454906960        2.1626636582       -0.0677645442
 H          4.6968769807        4.5115852292        0.0201425652
 H          2.2871918540        4.9405129995       -0.3116655952
 H          0.7401553478        3.0474827967       -0.7289045396
 H          1.5978347154        0.7550615719       -0.8216065552
 H          4.4455513710       -0.5162547297        1.7698018177
 H          2.7851607108        0.1299318705        3.2845630335
 H          0.4157266071       -0.0305912555        3.9599861677
 H         -1.2077595667       -1.1955747039        2.5135718665
 C         -0.8019075573       -2.4118989647        0.1769836239
 H         -1.1891666575       -3.2705524026        0.7452569476
 C         -0.2628514389       -2.9114871645       -1.1471140921
 C          0.4276992741       -4.2385618616       -1.2265117236
 C         -0.9387962160       -4.0677479566       -1.8175907647
 H         -1.0394502612       -4.0541776505       -2.8925529694
 H         -1.7788591183       -4.5147431772       -1.3055727205
 H          1.2699283979       -4.3396145848       -1.8947508338
 H          0.5175371498       -4.8108212182       -0.3153777392
 H          0.1020759024       -2.1120539137       -1.7826608736
 O         -0.6515106335        0.2141378057       -0.9747166597
