  62
        -98.93849111
 C         -2.5406931039       -1.1914956860        0.2187564405
 C         -2.6729175680       -0.3457432071       -0.9067497387
 C         -3.5351400397        0.8389479879       -0.7393590538
 C         -4.1320555829        1.0625435735        0.4463739722
 C         -5.0860736534        2.1515930003        0.8916648262
 C         -5.2573312445        3.4253892974        0.0678212768
 C         -4.0253026530        4.3286868814        0.0200157268
 H         -4.2297595296        5.1479136513       -0.6725804034
 H         -3.8733598627        4.7619301761        1.0119766843
 C         -2.7214788116        3.6473175775       -0.3888854407
 H         -1.9314300697        4.4032418572       -0.3767213468
 H         -2.4535022533        2.8928683465        0.3542149665
 C         -2.7257267241        3.0016719144       -1.7733394009
 H         -1.7001538450        2.6945743788       -1.9959469300
 H         -3.0247351540        3.7387524642       -2.5209259868
 C         -3.6211396293        1.7593565502       -1.9224341812
 H         -4.6535346999        2.0356000872       -2.1218870202
 H         -3.2610898879        1.1863220714       -2.7817676739
 H         -5.5904086896        3.1821809765       -0.9367212985
 H         -6.0637361775        3.9934510037        0.5396364572
 H         -6.0645444598        1.6679951027        0.9876228453
 H         -4.7762868020        2.4207931554        1.9066202684
 O         -3.9699470130        0.2149093983        1.5063964701
 C         -3.1707045592       -0.9120714026        1.4282994748
 O         -3.0971822077       -1.5665082068        2.4893928168
 H         -0.2680732233       -0.3512512567        1.0636981561
 C          0.3201318546       -0.9295726323        0.3601782494
 C         -0.2495973366       -2.0472108866       -0.2372084131
 C          0.5249427118       -2.7890288673       -1.1195417754
 C          1.8235169492       -2.4049958978       -1.4071079470
 C          2.3772265603       -1.2790300885       -0.8268467129
 C          1.6162354991       -0.5361487843        0.0663606174
 N          2.1673562046        0.6174075627        0.6551609658
 S          3.6295925169        0.4517109356        1.4667843279
 O          3.7873729468       -0.8809399801        2.0024660085
 O          3.6569711010        1.5363933508        2.4240364606
 C          4.8543637356        0.7542993855        0.2108595687
 C          5.8429355965       -0.1806435812       -0.0257488671
 C          6.7932182981        0.0817292321       -1.0004577991
 C          6.7379880712        1.2674985494       -1.7167881914
 C          5.7393655307        2.1968448088       -1.4655373707
 C          4.7875016248        1.9417653628       -0.4913663696
 H          3.9976138271        2.6379004300       -0.2632213155
 H          5.6992441300        3.1175795015       -2.0249814553
 H          7.4776790762        1.4690484190       -2.4754280429
 H          7.5704808596       -0.6390575506       -1.1970809070
 H          5.8414725230       -1.0911585056        0.5518600498
 H          1.5099235102        1.1318139695        1.2235020378
 H          3.3843651276       -0.9711574997       -1.0560078713
 H          2.4113365135       -2.9891504281       -2.0984977491
 H          0.1103113324       -3.6680168324       -1.5850156455
 C         -1.6630050637       -2.4257314699        0.1377838659
 H         -1.6398328432       -2.8501567462        1.1531457035
 C         -2.2825923332       -3.4417680289       -0.8002053912
 C         -2.0968893721       -4.9090489796       -0.5603426880
 C         -3.4285736255       -4.2708864274       -0.3063373902
 H         -4.2424660770       -4.4827428507       -0.9832452635
 H         -3.7404394374       -4.1223557880        0.7177092337
 H         -1.9998686679       -5.5631759930       -1.4137259173
 H         -1.5079551738       -5.2064253222        0.2943195293
 H         -2.3244701186       -3.0884063730       -1.8239774428
 O         -2.1017522823       -0.5662197804       -2.0055406983
