  62
        -98.94446624
 C         -2.6404276304       -1.2958391394        0.1075989892
 C         -2.5809900104       -0.2934327591       -0.8907736405
 C         -3.5641483702        0.7937917610       -0.7674530101
 C         -4.4493482402        0.7770064208        0.2451097699
 C         -5.4679562601        1.8451890808        0.5155751303
 C         -4.9126889199        2.9130157304        1.4683264506
 C         -3.5348542199        3.4420085604        1.0691237207
 H         -3.2589142998        4.2112263801        1.7937198110
 H         -2.8000382300        2.6383704603        1.1615406305
 C         -3.4654987298        4.0281948908       -0.3479035891
 H         -4.4706488398        4.2568216211       -0.7042638390
 H         -2.9118250097        4.9687234308       -0.3106321188
 C         -2.7568721200        3.1373175711       -1.3702978894
 H         -1.7827574500        2.8305426709       -0.9781803995
 H         -2.5714460099        3.7327754914       -2.2686287592
 C         -3.5230969901        1.8810352113       -1.8040643398
 H         -4.5327056801        2.1558831816       -2.1161742297
 H         -3.0003771802        1.4554649216       -2.6657747799
 H         -5.6229157698        3.7406495605        1.5108037309
 H         -4.8350533199        2.4790140901        2.4677284405
 H         -5.7661493300        2.3024983811       -0.4257299296
 H         -6.3405298801        1.3788291407        0.9759290901
 O         -4.4839769503       -0.2078019195        1.1779368196
 C         -3.5751579504       -1.2503683396        1.1459056592
 O         -3.7027150805       -2.0688642899        2.0778902289
 H          0.3470886195       -1.5796696792       -1.5090898910
 C          0.6029923495       -1.5051460396       -0.4641748610
 C         -0.3006046805       -1.9291326398        0.4975123689
 C          0.0383836595       -1.7850413203        1.8399854689
 C          1.2532381796       -1.2359646506        2.2055175391
 C          2.1506818196       -0.8083469403        1.2420054892
 C          1.8130748296       -0.9300028299       -0.0986144508
 N          2.7082281596       -0.4816833296       -1.0856362407
 S          3.3717439398        1.0506950902       -0.9067283002
 O          2.5118374999        1.9234253201       -0.1409469699
 O          3.7000175598        1.4823084006       -2.2480888501
 C          4.8855700198        0.7461711197       -0.0176583004
 C          5.1554406599        1.4390955693        1.1460375699
 C          6.3453846299        1.1918204790        1.8131818498
 C          7.2401612798        0.2617926490        1.3068538494
 C          6.9556759597       -0.4238696105        0.1351861392
 C          5.7686898997       -0.1803740402       -0.5368503807
 H          5.5114178596       -0.6884905699       -1.4510595208
 H          7.6540688996       -1.1462053005       -0.2557122910
 H          8.1646078298        0.0704794988        1.8284687593
 H          6.5683056100        1.7246462086        2.7236465399
 H          4.4275118600        2.1492960993        1.5053085501
 H          2.3562640996       -0.6045263593       -2.0247283407
 H          3.0942657397       -0.3676919605        1.5197296193
 H          1.5042020596       -1.1357058909        3.2506305391
 H         -0.6725685905       -2.0955113405        2.5932195988
 C         -1.6639240106       -2.4628460795        0.1302319687
 H         -2.0016077806       -3.1175222698        0.9442861885
 C         -1.6828491807       -3.2504931091       -1.1633070715
 C         -1.0567802309       -4.6112778492       -1.1967517120
 C         -2.5470748509       -4.4698374790       -1.2628696819
 H         -3.0447391009       -4.6720863286       -2.1995179219
 H         -3.1268268009       -4.7437880892       -0.3934739620
 H         -0.5291120109       -4.9152901089       -2.0877213721
 H         -0.6234976909       -4.9812395095       -0.2798859321
 H         -1.6020664207       -2.6324851388       -2.0483108213
 O         -1.7623075104       -0.2954075989       -1.8485935805
