  62
        -98.94626217
 C         -2.3848313278       -0.5447304557       -0.0117945040
 C         -1.3881575244       -0.7350656992        0.9728288064
 C         -0.6866967973       -2.0242473396        0.9459122567
 C         -1.0182692687       -2.9299766900        0.0081964730
 C         -0.3023186714       -4.2276457763       -0.2351334799
 C          1.0006155167       -3.9545023842       -1.0155345038
 C          2.2802096632       -4.2777861629       -0.2431279918
 H          2.4177333940       -5.3613766960       -0.2189914245
 H          3.1119271076       -3.8493557346       -0.8071010764
 C          2.3373918827       -3.7622537840        1.1981932602
 H          3.3812134200       -3.8159618823        1.5144720085
 H          1.7779741393       -4.4355728242        1.8498141466
 C          1.8294077332       -2.3307370758        1.4139217363
 H          2.4861986458       -1.8378835300        2.1342775817
 H          1.8886447265       -1.7592256642        0.4865073034
 C          0.3940681375       -2.2418671779        1.9678267802
 H          0.1695906876       -3.1357705008        2.5562391018
 H          0.3293252849       -1.3790002437        2.6367426086
 H          1.0118906909       -2.9024207637       -1.3120302358
 H          1.0015547715       -4.5378175466       -1.9382721533
 H         -0.0875738168       -4.7171417891        0.7122865880
 H         -0.9672759771       -4.8659082542       -0.8177185851
 O         -2.0073063920       -2.7263736137       -0.9007809125
 C         -2.6911414707       -1.5226999258       -0.9547653835
 O         -3.5378810514       -1.4481342197       -1.8702817470
 H         -0.8767684201        0.6716859993       -1.6280917200
 C         -0.9312997517        1.6130177552       -1.1006890396
 C         -2.0164505192        1.8777748727       -0.2745755667
 C         -2.0693843914        3.1054793708        0.3732104770
 C         -1.0429891373        4.0225214637        0.2217543906
 C          0.0645594264        3.7277176966       -0.5523794677
 C          0.1200556917        2.5069879016       -1.2153728003
 N          1.2302559477        2.1453936250       -2.0059137988
 S          2.0949985921        0.7751129583       -1.5772349337
 O          3.1678101638        0.6968349760       -2.5459313016
 O          1.2191370642       -0.3659214704       -1.5084174969
 C          2.7851622123        1.1533179457        0.0243308330
 C          4.1257713467        1.4798516353        0.1017822189
 C          4.6654709363        1.8201135289        1.3312353450
 C          3.8561399423        1.8373999530        2.4573823601
 C          2.5121008916        1.5130973127        2.3607436825
 C          1.9646896404        1.1672048490        1.1343864337
 H          0.9225178757        0.9029296821        1.0471435055
 H          1.8742609144        1.5231761039        3.2301495437
 H          4.2739445791        2.1036507471        3.4155135041
 H          5.7112690419        2.0710092231        1.4068085186
 H          4.7147419872        1.4500653843       -0.8006905242
 H          1.8791626748        2.9034455680       -2.1678576957
 H          0.8789502070        4.4305371795       -0.6441875394
 H         -1.0967150716        4.9717842459        0.7324954251
 H         -2.9104820411        3.3407427403        1.0047306472
 C         -3.0703852639        0.8054431713       -0.1250347480
 H         -3.6676685541        0.7709728278       -1.0482479500
 C         -3.9970553430        1.0343904316        1.0511453118
 C         -5.2352936487        1.8630654753        0.8905672898
 C         -5.3430722791        0.3768022126        1.0473054823
 H         -5.7261802297       -0.0203311838        1.9752265323
 H         -5.6003522348       -0.2150484464        0.1806078726
 H         -5.4340045302        2.2833288693       -0.0838191086
 H         -5.5497027446        2.4861911292        1.7142070212
 H         -3.4652781149        1.0809880439        1.9944282449
 O         -1.0867588688        0.1427617061        1.8255473798
