  62
        -98.93997543
 C          1.3069764235        1.1892863627        0.0373709589
 C          2.2156612945        0.7743269435        1.0362290781
 C          2.8428243658       -0.5436900083        0.8404402980
 C          2.5058400970       -1.2801695331       -0.2324446004
 C          2.9777397562       -2.6651755027       -0.5996178510
 C          4.4743320589       -2.9702009540       -0.4417077604
 C          5.4112660849       -1.7773352904       -0.6808364383
 H          6.1888986407       -2.0735139094       -1.3872864587
 H          4.8593850155       -0.9507654036       -1.1313573694
 C          6.1002259099       -1.2936495971        0.5975710214
 H          6.9928214669       -0.7263824851        0.3227997370
 H          6.4305940432       -2.1642415508        1.1686026474
 C          5.2545335612       -0.3958068456        1.4999632483
 H          5.1111507904        0.5780858383        1.0238949882
 H          5.8150386225       -0.2212491978        2.4216830966
 C          3.8652817989       -0.9443461375        1.8646333320
 H          3.8928947624       -2.0217385249        2.0095308045
 H          3.5549272901       -0.4750703402        2.8025278091
 H          4.6617189794       -3.3727601247        0.5529009684
 H          4.7108490413       -3.7655680117       -1.1505151942
 H          2.4053438410       -3.3873619595       -0.0099081372
 H          2.6881829715       -2.7951430206       -1.6447871331
 O          1.6089507071       -0.8474861751       -1.1624236119
 C          0.9911043579        0.3885203677       -1.0604475588
 O          0.2020606363        0.6495429243       -1.9848082286
 H         -0.6931990105        0.6981597736        1.6048281413
 C         -1.3851553459        1.2791032386        1.0068376955
 C         -0.8916505148        2.2997240291        0.2026446014
 C         -1.7930878111        3.0390553818       -0.5507050384
 C         -3.1461280592        2.7456634150       -0.5136411249
 C         -3.6295412508        1.7162053086        0.2723606720
 C         -2.7367100893        0.9792407387        1.0399689876
 N         -3.2139076734       -0.0844691410        1.8370166372
 S         -3.9588823145       -1.3384042694        1.0087312817
 O         -5.2473274449       -0.8895842889        0.5458723166
 O         -3.9657416327       -2.4520687930        1.9310103070
 C         -2.8957095499       -1.6881341405       -0.3780889007
 C         -3.1362382633       -1.0757680950       -1.5911233508
 C         -2.2718345541       -1.3186643615       -2.6455326696
 C         -1.1892871520       -2.1651392208       -2.4707291218
 C         -0.9614447334       -2.7727658824       -1.2463207910
 C         -1.8169328404       -2.5275498450       -0.1852195015
 H         -1.6745047393       -2.9835018255        0.7822463790
 H         -0.1143873808       -3.4270392431       -1.1144020948
 H         -0.5121067722       -2.3432782950       -3.2907026326
 H         -2.4363832680       -0.8382380532       -3.5960906984
 H         -3.9913788553       -0.4273849541       -1.6893351462
 H         -2.5024490695       -0.4679486383        2.4437684266
 H         -4.6766797125        1.4610725061        0.2966727183
 H         -3.8337997879        3.3246234802       -1.1111201209
 H         -1.4365430604        3.8394439942       -1.1777907381
 C          0.6001421695        2.5245788762        0.1816816129
 H          0.9063033171        2.9179243421        1.1625988173
 C          1.0543196142        3.4881090753       -0.8941515789
 C          1.0451791288        4.9652141614       -0.6404229745
 C          2.3458495440        4.2242999280       -0.7073536262
 H          2.9837936634        4.3741274978       -1.5654714153
 H          2.8860036887        4.0522453350        0.2123783644
 H          0.7055673444        5.3050656127        0.3262920703
 H          0.7921197655        5.6273806404       -1.4546399662
 H          0.8186325883        3.1364349508       -1.8922619392
 O          2.4777617749        1.4638287078        2.0596007475
