  62
        -98.94437396
 C         -1.8506552115       -0.7687930494        0.1032186209
 C         -2.3831548737        0.5405812716        0.1811116508
 C         -3.8063739510        0.6257552913        0.5340005332
 C         -4.5047235281       -0.4975198626        0.7808962880
 C         -5.9550949646       -0.5706725431        1.1750016890
 C         -6.9273939811       -0.5209363161       -0.0114631040
 C         -7.0639488352        0.8457945706       -0.6835697249
 H         -7.9286133719        0.7911552163       -1.3480149001
 H         -7.2817102224        1.6011863295        0.0721009505
 C         -5.8386016381        1.2736319651       -1.5033846309
 H         -5.2122792541        0.4016970077       -1.7056836292
 H         -6.1651490789        1.6635224957       -2.4701787802
 C         -4.9814457098        2.3552438108       -0.8455848046
 H         -5.5588410256        3.2784694229       -0.7588879936
 H         -4.1239773338        2.5545708316       -1.4935860691
 C         -4.4474537519        1.9805088052        0.5431618050
 H         -3.6811223362        2.7074476815        0.8238002728
 H         -5.2515338305        2.0178541154        1.2778873055
 H         -6.6138651154       -1.2609593675       -0.7513501787
 H         -7.9104947606       -0.8186844408        0.3603552746
 H         -6.0893174139       -1.5245233573        1.6896510539
 H         -6.1870122800        0.2356703679        1.8712838843
 O         -3.9472765279       -1.7361888655        0.7180106466
 C         -2.6189228320       -1.9037230821        0.3613383229
 O         -2.2425121736       -3.0927365899        0.3211793201
 H          1.7474716081        0.6993203300       -0.8365173192
 C          1.5497464914        0.5808419390        0.2153785730
 C          0.5059960600       -0.2164798759        0.6572544603
 C          0.2913394856       -0.3329446125        2.0289784522
 C          1.0779853189        0.3566558772        2.9296633163
 C          2.1098950949        1.1645785482        2.4840613160
 C          2.3436549707        1.2754729249        1.1198476531
 N          3.3838856929        2.0855237107        0.6382206550
 S          4.3423477636        1.5331868009       -0.6130740471
 O          5.5764224363        2.2771112339       -0.4800110545
 O          3.6592859552        1.6689833879       -1.8739982098
 C          4.6212240278       -0.1899143201       -0.2430853193
 C          4.1733503745       -1.1616388091       -1.1129973024
 C          4.3698717721       -2.4946629289       -0.7884019656
 C          5.0054048712       -2.8304591368        0.3964977562
 C          5.4558001142       -1.8415698922        1.2580951684
 C          5.2629456295       -0.5079718327        0.9380281687
 H          5.6107241669        0.2847757230        1.5801334330
 H          5.9534688487       -2.1066670717        2.1769546140
 H          5.1521087968       -3.8688958705        0.6485293973
 H          4.0241970473       -3.2650583671       -1.4594012574
 H          3.6810404400       -0.8578870960       -2.0221685515
 H          3.9329269678        2.5365058017        1.3550737908
 H          2.7205881566        1.7125291550        3.1853272510
 H          0.8893270227        0.2643957411        3.9886043634
 H         -0.5154855997       -0.9633974598        2.3776786766
 C         -0.3973840654       -0.9718452156       -0.2862491211
 H         -0.1975885074       -2.0468589677       -0.1664856402
 C         -0.2026442861       -0.5993601593       -1.7414450028
 C          0.8075882768       -1.3191816682       -2.5807024058
 C         -0.6554213171       -1.5584561967       -2.7997932056
 H         -1.1184307495       -1.1626834614       -3.6913659681
 H         -1.0758285302       -2.4971846600       -2.4686548183
 H          1.3776545305       -2.1037467815       -2.1068919248
 H          1.3534759808       -0.7558222106       -3.3233086553
 H         -0.3626198372        0.4570172960       -1.9271473654
 O         -1.7095852823        1.5829768932       -0.0273546160
