  62
        -98.94048460
 C         -1.3726735549       -0.9194627958       -0.1327573858
 C         -2.4905685340       -0.9342310934        0.7386625375
 C         -3.5025386469        0.1204501140        0.5629969312
 C         -3.3240033569        1.0452296094       -0.3983594400
 C         -4.1473131630        2.2558557315       -0.7871325314
 C         -5.5637748979        2.4415960176       -0.2496322619
 C         -6.5844336002        1.4341504659       -0.7788774762
 H         -7.5263088641        1.5911108205       -0.2488278633
 H         -6.7593069498        1.6426635499       -1.8373690517
 C         -6.1846900367       -0.0342764840       -0.6593001643
 H         -5.2895143933       -0.2199884204       -1.2562345004
 H         -6.9899076170       -0.6357922332       -1.0897024787
 C         -5.9434131851       -0.5318631915        0.7642687992
 H         -6.8192083255       -0.3210651193        1.3810286452
 H         -5.8204334954       -1.6172000420        0.7175635067
 C         -4.7009325224        0.0438140465        1.4650059758
 H         -4.9105348733        1.0147096263        1.9080057832
 H         -4.4270071060       -0.6345537470        2.2784047471
 H         -5.8881856073        3.4369535187       -0.5654367397
 H         -5.5553862710        2.4444810828        0.8363857914
 H         -3.5465730252        3.1247095452       -0.4945765540
 H         -4.1759844558        2.2588826069       -1.8816459748
 O         -2.2286089751        1.0277951469       -1.2097060075
 C         -1.2309362958        0.0694461783       -1.1053488728
 O         -0.3151686752        0.2224499156       -1.9365556011
 H          0.8489689577        0.4258698835        0.3713907411
 C          1.2475050588       -0.3108615426        1.0501184926
 C          0.7346695494       -1.5988723239        1.0564770552
 C          1.2491353738       -2.5180223368        1.9646110029
 C          2.2524891892       -2.1534289450        2.8431696944
 C          2.7691243097       -0.8705031968        2.8266136815
 C          2.2585564211        0.0585976996        1.9269960676
 N          2.7466089626        1.3721641709        1.9074955167
 S          2.8856592032        2.2128636777        0.4676254107
 O          3.8141427739        3.2801834458        0.7804722402
 O          1.5872685613        2.6291252733        0.0031287779
 C          3.6626065458        1.0630259121       -0.6520006278
 C          4.9930162571        0.7674752365       -0.4192750060
 C          5.6298085516       -0.1548472001       -1.2317519336
 C          4.9268577569       -0.7672353543       -2.2588151211
 C          3.5955597877       -0.4552514244       -2.4814722026
 C          2.9500426964        0.4685140705       -1.6720371489
 H          1.9109766993        0.7190837758       -1.8219090750
 H          3.0450919661       -0.9267841642       -3.2804376422
 H          5.4190888709       -1.4892910150       -2.8910831171
 H          6.6670755337       -0.3949538781       -1.0626913693
 H          5.5068290130        1.2767761378        0.3798642898
 H          3.5344928240        1.5416271911        2.5152352061
 H          3.5512514409       -0.5825136010        3.5119536363
 H          2.6386123463       -2.8742787363        3.5473190434
 H          0.8449571336       -3.5184916372        1.9908213964
 C         -0.3435025739       -2.0129725452        0.0803039961
 H         -0.8964751182       -2.8460677498        0.5370804679
 C          0.3059442311       -2.5113864421       -1.1967548700
 C          0.8049285847       -3.9216541360       -1.2749951577
 C         -0.4112958405       -3.5126987974       -2.0495150222
 H         -0.3410876314       -3.4170548061       -3.1224198323
 H         -1.3753916845       -3.8598464175       -1.7067943885
 H          0.6618178941       -4.5569993248       -0.4146939192
 H          1.7191566034       -4.1121332130       -1.8151523935
 H          0.8779240142       -1.7473098121       -1.7055795484
 O         -2.6387534651       -1.8064072293        1.6375906379
