  62
        -98.93376239
 C         -2.4333598178       -0.3008881243        0.3519413566
 C         -3.5905440378       -0.0839183429        1.1339123402
 C         -4.7578341952        0.4804647752        0.4349576482
 C         -4.6547341951        0.7746343097       -0.8729267737
 C         -5.7322054677        1.3059940420       -1.7772947680
 C         -6.4514453398        0.1543612131       -2.5001006370
 C         -7.6251793790       -0.4544081027       -1.7337402994
 H         -8.4539170520        0.2566342564       -1.7235329073
 H         -7.9554741585       -1.3341644222       -2.2908020719
 C         -7.3213670728       -0.8710557931       -0.2922124241
 H         -6.3517311085       -1.3704068235       -0.2496524775
 H         -8.0742895609       -1.6013174245        0.0107253399
 C         -7.3469857617        0.3057561777        0.6944906675
 H         -7.9907747140        0.0544061642        1.5399461141
 H         -7.8002599755        1.1688838699        0.2072512441
 C         -5.9829476465        0.7015074565        1.2798683172
 H         -6.0150132978        1.7546123684        1.5791496907
 H         -5.7971426591        0.1250630153        2.1916411923
 H         -5.7103919873       -0.6196558777       -2.7154534985
 H         -6.8271116401        0.5218914928       -3.4571762150
 H         -5.2329551414        1.9275426219       -2.5235430763
 H         -6.4336519403        1.9210621193       -1.2214921291
 O         -3.5136802603        0.5653015666       -1.5855623058
 C         -2.3801988881        0.0252965455       -1.0028429293
 O         -1.4173975335       -0.1133036245       -1.7803121756
 O         -3.6485558235       -0.3528096498        2.3649695955
 C         -1.1964639749       -0.8807447968        1.0141436124
 C         -0.0628484902        0.1106271169        0.9178897397
 C         -0.2579348275        1.3925967189        1.4267047063
 C          0.7423550794        2.3419984642        1.3551245592
 C          1.9602202994        2.0370418593        0.7721696101
 C          2.1690391150        0.7606794363        0.2700916503
 C          1.1644868357       -0.1974909663        0.3551299666
 H          1.3424444675       -1.1849068196       -0.0411293425
 N          3.3954965773        0.4457269178       -0.3399241745
 S          4.8073624743        1.0165570948        0.3883375085
 O          4.7610642862        0.7791874652        1.8140239513
 O          5.0121281043        2.3858252823       -0.0133651367
 C          6.0293732045       -0.0289042942       -0.3788817713
 C          6.5110511432        0.3158043561       -1.6275014429
 C          7.4418009312       -0.5103650960       -2.2370617438
 C          7.8721728635       -1.6605871223       -1.5922978875
 C          7.3803475409       -1.9926678786       -0.3388617609
 C          6.4481743357       -1.1716779081        0.2759832166
 H          6.0459497226       -1.3854313494        1.2533163882
 H          7.7193613149       -2.8858031669        0.1608512081
 H          8.5978662304       -2.3008712439       -2.0684489582
 H          7.8283293973       -0.2548428903       -3.2104801832
 H          6.1543015190        1.2231674810       -2.0862295569
 H          3.4686455823       -0.5353741773       -0.5713381560
 H          2.7494741938        2.7686249908        0.7064023325
 H          0.5746626724        3.3316892757        1.7536391126
 H         -1.2106712586        1.6344845838        1.8784788547
 H         -1.4596824281       -0.9925456119        2.0762716686
 C         -0.8766721630       -2.2464099155        0.4450477766
 C         -0.1009604256       -3.2370481153        1.2597483654
 C         -1.5645029037       -3.4481794462        1.0172233838
 H         -1.8686214621       -4.2366536844        0.3452722526
 H         -2.2496466213       -3.2846246078        1.8361362295
 H          0.5986901407       -3.8862121529        0.7550905919
 H          0.2111750653       -2.9344901971        2.2479520377
 H         -0.7183999235       -2.2255253634       -0.6273928495
