  62
        -98.94228393
 C         -0.9025343550       -1.8402991704       -0.7499535487
 C         -1.9962959174       -2.0696064832        0.1252985609
 C         -3.1379958227       -1.1559821000        0.0047524864
 C         -3.0934517392       -0.1729451612       -0.9123735594
 C         -4.1574264820        0.8675091369       -1.1051819707
 C         -3.8787718695        2.1098881288       -0.2484137411
 C         -3.5589990519        1.7963457100        1.2128489786
 H         -2.6115031496        1.2543400670        1.2624501978
 H         -3.4092993694        2.7493346931        1.7241641999
 C         -4.6440817083        0.9909896523        1.9415242179
 H         -4.8114476250        1.4367576702        2.9242557458
 H         -5.5845611898        1.0547701334        1.3928780851
 C         -4.2945146346       -0.4799962503        2.1749183867
 H         -3.3088372339       -0.5537236212        2.6417551551
 H         -5.0212855943       -0.8951887234        2.8784507363
 C         -4.3032651904       -1.3735912552        0.9281540346
 H         -5.2476129254       -1.2513878965        0.3936012183
 H         -4.2297599994       -2.4123848155        1.2633505698
 H         -3.0226889417        2.6351021762       -0.6746711381
 H         -4.7488647959        2.7667123312       -0.2999369196
 H         -4.1697869373        1.1567611819       -2.1572735972
 H         -5.1244712395        0.4408221269       -0.8456838081
 O         -2.0407635657        0.0078295626       -1.7462438253
 C         -0.9137597961       -0.8090022576       -1.6895304461
 O         -0.0431528731       -0.5035697453       -2.5230457312
 O         -2.0142399803       -3.0081286197        0.9670658242
 C          0.2889745237       -2.7637353536       -0.5752678897
 C          1.1840093907       -2.2669522213        0.5328251263
 C          1.6615611540       -3.1433238069        1.5004310273
 C          2.4898429759       -2.6912694705        2.5117619695
 C          2.8707669217       -1.3632327012        2.5632731319
 C          2.3951295919       -0.4758169668        1.6035866877
 C          1.5432208501       -0.9280155560        0.6060700122
 H          1.1697719901       -0.2333701900       -0.1310345392
 N          2.7561384056        0.8778467723        1.6439521528
 S          3.1108290671        1.7060493513        0.2274216721
 O          3.5276587118        0.8027110778       -0.8165119061
 O          4.0816489595        2.7016923153        0.6350441021
 C          1.6011009975        2.5487333425       -0.1887884844
 C          1.1498097579        3.5113880823        0.6945065983
 C          0.0075727063        4.2275136252        0.3803874210
 C         -0.6604397536        3.9725982318       -0.8086475340
 C         -0.2002719777        2.9973093855       -1.6789862293
 C          0.9446479609        2.2775889757       -1.3710544799
 H          1.3150039471        1.5041215547       -2.0265620008
 H         -0.7238095702        2.7791765805       -2.5965181678
 H         -1.5410048376        4.5433624668       -1.0605073090
 H         -0.3572018610        4.9833325313        1.0570921247
 H          1.7081334065        3.6898013052        1.5984113169
 H          3.4050007399        1.1170866731        2.3798526226
 H          3.5277372636       -1.0093650007        3.3433319818
 H          2.8501957665       -3.3798689553        3.2608263300
 H          1.3666433433       -4.1816900647        1.4632291855
 H         -0.1392483605       -3.7224624659       -0.2387894631
 C          1.0566816930       -3.0435530181       -1.8578461287
 C          2.3477587075       -2.3780179123       -2.2164602752
 C          2.3387519936       -3.8221505420       -1.8190525395
 H          2.5130614625       -4.5684899174       -2.5793829336
 H          2.7418728219       -4.0744918508       -0.8498144875
 H          2.5026700736       -2.1245297226       -3.2545006075
 H          2.7668245417       -1.6491905347       -1.5390139316
 H          0.3864065748       -3.2543320445       -2.6854892952
