  62
        -98.94074675
 C          1.6696830902        1.2679218207       -0.5857037994
 C          1.7043453599        0.3157510398        0.4640054698
 C          3.0469382898       -0.0584403406        0.9410966098
 C          4.1307760599        0.5389222798        0.4159574805
 C          5.5514112698        0.2130925194        0.7734935005
 C          6.1205014000       -0.8759285799       -0.1467611002
 C          5.2129779100       -2.0973987197       -0.2932921314
 H          4.2983583101       -1.8015566892       -0.8122088714
 H          5.7308819401       -2.8109115392       -0.9379113619
 C          4.8453339796       -2.7784401908        1.0324480779
 H          5.5428162695       -2.4708675715        1.8124468883
 H          4.9510595796       -3.8585650307        0.9113907271
 C          3.4124255596       -2.5199975011        1.5022465978
 H          2.7166670197       -2.7375381704        0.6881183675
 H          3.1924071994       -3.2147563818        2.3170194372
 C          3.1252154095       -1.1040661315        2.0178014989
 H          2.1405060494       -1.1147226119        2.4940604187
 H          3.8674914194       -0.8284210922        2.7696150793
 H          7.0912008699       -1.1857460302        0.2448078397
 H          6.2769394902       -0.4443727391       -1.1382756799
 H          6.1500407599        1.1189726995        0.6632387014
 H          5.5939569796       -0.1140327115        1.8105982203
 O          4.0537032302        1.4935934306       -0.5467972987
 C          2.8303171903        1.8766508211       -1.0707567287
 O          2.9055230205        2.7641109718       -1.9445505779
 H         -2.0216140799        0.5080069109       -0.5596864408
 C         -1.7893080400        1.3336358303        0.0904531699
 C         -0.6261193799        2.0605829204       -0.0990954392
 C         -0.3457207800        3.1138356397        0.7674976417
 C         -1.2094835602        3.4263060389        1.7990398818
 C         -2.3702295303        2.6965975588        1.9872911509
 C         -2.6554070002        1.6397138995        1.1309749100
 N         -3.7926794502        0.8521270794        1.3309452591
 S         -4.4995811900       -0.0491534096        0.1278863482
 O         -4.5654874397        0.6784242814       -1.1196209212
 O         -5.7762199302       -0.4483323000        0.6831074176
 C         -3.4750551901       -1.4938193295       -0.0682486528
 C         -3.5593895698       -2.1791017085       -1.2647326933
 C         -2.8026361799       -3.3267016084       -1.4379990341
 C         -1.9748158301       -3.7659359293       -0.4163057143
 C         -1.9020035003       -3.0670245003        0.7781577763
 C         -2.6613373703       -1.9223290004        0.9604537271
 H         -2.6079828405       -1.3547841311        1.8741739475
 H         -1.2498943305       -3.4027541409        1.5681331961
 H         -1.3801918601       -4.6553052692       -0.5542810449
 H         -2.8566333697       -3.8700634476       -2.3681117446
 H         -4.2042342797       -1.7935034878       -2.0387445332
 H         -4.4298338604        1.1446978088        2.0545581692
 H         -3.0436188305        2.9347630881        2.7964420810
 H         -0.9790866803        4.2451124983        2.4641768225
 H          0.5662175500        3.6784078898        0.6249875724
 C          0.3594721903        1.7396072713       -1.1942813093
 H          0.6080338605        2.6823033117       -1.7094829685
 C         -0.2075577195        0.8038967922       -2.2515656602
 C          0.7016754506        0.0030195829       -3.1339614706
 C         -0.1577699196       -0.6876791779       -2.1202552114
 H         -1.0071102496       -1.2573058676       -2.4688782220
 H          0.3056031802       -1.0989403287       -1.2380120916
 H          0.4487828709       -0.0940998763       -4.1789907808
 H          1.7636304606        0.0721167627       -2.9465004904
 H         -1.0943035194        1.2193051926       -2.7225515800
 O          0.6851606498       -0.2046243905        0.9830760692
