  62
        -98.93724506
 C         -1.9100496368        0.3839566687        0.2123297674
 C         -2.9485360409        0.7960078945       -0.6601441056
 C         -4.1818905219        0.0003727994       -0.6242461446
 C         -4.2531670407       -1.0769413672        0.1778575933
 C         -5.4076899374       -2.0364422325        0.2966730048
 C         -6.7170588895       -1.4593488066        0.8686823217
 C         -7.7119823951       -0.9752608967       -0.1934634069
 H         -7.5118787287       -1.5015206138       -1.1276287296
 H         -8.7202831327       -1.2585172070        0.1154575740
 C         -7.7316285732        0.5344960641       -0.4510743067
 H         -8.2815580336        0.7078238440       -1.3786384866
 H         -8.2826367050        1.0262190122        0.3539139936
 C         -6.3652738571        1.2130197745       -0.5510826290
 H         -6.5153424058        2.2263197344       -0.9288551495
 H         -5.9331075626        1.3167960350        0.4470247293
 C         -5.3452830832        0.4789957799       -1.4431881656
 H         -5.8169852480       -0.3533451442       -1.9633490961
 H         -4.9402086833        1.1659958186       -2.1887667501
 H         -6.4857221832       -0.6570816736        1.5688935855
 H         -7.1914641257       -2.2592022918        1.4395382170
 H         -5.6028991198       -2.4727138990       -0.6856659553
 H         -5.0544093206       -2.8357299477        0.9514880710
 O         -3.2214393535       -1.4578855946        0.9785089494
 C         -2.0353995027       -0.7397339838        1.0290658077
 O         -1.2001394707       -1.2033846823        1.8292544129
 H          1.2534464443       -0.4334306874        1.3823882302
 C          1.3419616965       -0.4097926331        0.3078764002
 C          0.4643353972        0.3615024223       -0.4386570742
 C          0.5814487359        0.3508133176       -1.8254821877
 C          1.5516391570       -0.4128883207       -2.4478145514
 C          2.4240211799       -1.1842179836       -1.6999621574
 C          2.3077629909       -1.1870136428       -0.3166103943
 N          3.2026652729       -1.9618006380        0.4482022015
 S          4.8293264126       -1.6427047269        0.2043171015
 O          5.2756573232       -2.3112710148       -0.9922596901
 O          5.4919051257       -2.0292004565        1.4299730425
 C          4.8981317818        0.1253035979       -0.0245009672
 C          5.1519220065        0.6497375795       -1.2751292789
 C          5.1220520659        2.0250448243       -1.4427572611
 C          4.8345460809        2.8463494672       -0.3639909795
 C          4.5842800669        2.3039155857        0.8872926054
 C          4.6122888995        0.9301581904        1.0606078199
 H          4.4272333871        0.4738462452        2.0199158129
 H          4.3619885529        2.9459269418        1.7244552613
 H          4.8054288640        3.9163252237       -0.4973153478
 H          5.3172310822        2.4502328413       -2.4140121452
 H          5.3692938233       -0.0246788377       -2.0869276289
 H          2.9817492957       -1.9651569871        1.4335662836
 H          3.1890893320       -1.7861803086       -2.1633072594
 H          1.6310448327       -0.4084087425       -3.5242028178
 H         -0.1062721892        0.9452398310       -2.4103251122
 C         -0.6195606340        1.1868343328        0.2083807304
 H         -0.8207532433        2.0481011490       -0.4425545599
 C         -0.2459400320        1.6926098140        1.5868073242
 C          0.8542028120        2.7024034178        1.7176919752
 C         -0.5676721668        3.1061377634        1.9638416652
 H         -0.8792522325        3.3096512128        2.9774962154
 H         -1.0604239821        3.7208226367        1.2250752010
 H          1.5202401871        2.6297361993        2.5636470048
 H          1.3300187556        3.0379757117        0.8088159466
 H         -0.3388464893        0.9413365156        2.3614308567
 O         -2.8468948912        1.7826100415       -1.4364416385
