  62
        -98.94781311
 C          1.0632060076        1.2199531951        0.0626326969
 C          1.5531437435        0.2144634823        0.9284951465
 C          2.4388281664       -0.7858541562        0.3190602523
 C          2.7140443102       -0.7057165677       -0.9956519818
 C          3.6246038988       -1.6403515075       -1.7371866275
 C          5.0699231979       -1.1234397223       -1.7460489588
 C          5.5859976417       -0.7127608772       -0.3668907867
 H          6.6234885867       -0.3947469087       -0.4897333534
 H          5.0214551376        0.1560526952       -0.0209462022
 C          5.5120709414       -1.8203898228        0.6933136883
 H          5.4024063628       -2.7907418438        0.2076359494
 H          6.4534371557       -1.8389384246        1.2464368805
 C          4.3944882504       -1.6395875847        1.7218954926
 H          4.5673476629       -2.3456031464        2.5384280410
 H          4.4447016675       -0.6322907503        2.1425919467
 C          2.9682852193       -1.8758010606        1.2087654759
 H          2.9109001051       -2.8443552895        0.7065246434
 H          2.3044890197       -1.9008312635        2.0782077015
 H          5.1213669360       -0.2538312967       -2.4053295847
 H          5.7119020663       -1.9027236466       -2.1609263089
 H          3.5804879157       -2.6244002640       -1.2737652017
 H          3.2661083638       -1.7212625313       -2.7651030883
 O          2.2264621743        0.2744466862       -1.7973268535
 C          1.3813194446        1.2543352621       -1.2954838943
 O          0.9953003805        2.0823138965       -2.1426374690
 H         -0.9925785704        0.0973127194       -0.5753045330
 C         -1.6700362423        0.9359537237       -0.5733707580
 C         -1.2590606701        2.1474972854       -0.0373956713
 C         -2.1420392810        3.2211884714       -0.0817134904
 C         -3.3916267881        3.0771840780       -0.6583674179
 C         -3.7948961600        1.8662862115       -1.1919922624
 C         -2.9195893042        0.7868440251       -1.1539018403
 N         -3.2768771978       -0.4504731907       -1.7008976111
 S         -2.5648609933       -1.8756761565       -1.2184816882
 O         -1.2063155883       -1.9589494715       -1.6963337915
 O         -3.4683605258       -2.8956947753       -1.7083695983
 C         -2.6015432418       -1.8498896161        0.5642387513
 C         -1.4226324231       -1.8698138846        1.2796835713
 C         -1.4732764152       -1.8073491179        2.6628181964
 C         -2.6999407019       -1.7361849053        3.3039545565
 C         -3.8783644603       -1.7338542693        2.5724440574
 C         -3.8318531524       -1.7867318707        1.1892143049
 H         -4.7269063931       -1.7905391064        0.5890006492
 H         -4.8303194501       -1.6840383302        3.0759482216
 H         -2.7352720479       -1.6826627041        4.3806133537
 H         -0.5512416024       -1.7895389112        3.2217059871
 H         -0.4831462340       -1.9197128288        0.7503785774
 H         -4.2395725217       -0.5547823665       -1.9809117471
 H         -4.7680469488        1.7576505845       -1.6449390447
 H         -4.0642715245        3.9206393295       -0.6912016921
 H         -1.8463830620        4.1725121783        0.3297274804
 C          0.0999839134        2.2502088462        0.6157336045
 H         -0.0210230852        1.9925122603        1.6797837294
 C          0.6890331259        3.6445595681        0.5194685927
 C          0.4499701257        4.6537424995        1.6016557427
 C          1.8006158493        4.0235866340        1.4507516994
 H          2.6143057122        4.6208501549        1.0675564008
 H          2.1057505789        3.2872534320        2.1801454595
 H          0.3367949246        5.6904730565        1.3222407631
 H         -0.1522331473        4.3527057748        2.4455994969
 H          0.7543112082        3.9955025295       -0.5042850312
 O          1.2559941795        0.1504008927        2.1521897036
