  62
        -98.93520751
 C          2.2017935602        1.1540498307        0.6315033778
 C          2.1976363971        0.2291893618       -0.4399294085
 C          3.0698468239       -0.9540973362       -0.2914844930
 C          3.7805142046       -1.1218532626        0.8381861215
 C          4.7166497030       -2.2287422550        1.2771784460
 C          5.2429903454       -3.2516334289        0.2738035139
 C          6.1971525151       -2.6851138577       -0.7772218848
 H          7.1299015924       -2.4026516288       -0.2826695398
 H          6.4264574576       -3.4783483027       -1.4920080910
 C          5.6909097315       -1.4621375292       -1.5379500389
 H          5.5533285330       -0.6299298690       -0.8446094314
 H          6.4678814184       -1.1646065415       -2.2472037357
 C          4.3988640952       -1.6704773911       -2.3257006357
 H          4.2416988549       -0.7815840755       -2.9426071814
 H          4.5094374956       -2.5256019061       -2.9952296979
 C          3.1315145678       -1.8735869703       -1.4769950136
 H          2.2633286744       -1.6313885250       -2.0976168587
 H          3.0248242116       -2.9098365476       -1.1642961406
 H          4.4167257682       -3.7722077953       -0.2016382687
 H          5.7950603786       -3.9975456041        0.8521590293
 H          5.5647123670       -1.7277605746        1.7550510343
 H          4.1884774839       -2.7652608854        2.0734069872
 O          3.6981061582       -0.2346272791        1.8740965183
 C          2.9178965165        0.9056580655        1.8029029675
 O          2.9376448709        1.6024109734        2.8376226486
 H         -0.2918770088        0.6882882083        1.7292798732
 C         -0.7560763188        1.1450506047        0.8622958642
 C         -0.0382446387        2.0858285491        0.1333263861
 C         -0.6364336541        2.6549287441       -0.9823037751
 C         -1.9157733341        2.2813515353       -1.3558810182
 C         -2.6254774224        1.3440194731       -0.6284096840
 C         -2.0348189696        0.7652402911        0.4874087518
 N         -2.7508831067       -0.1829517882        1.2416931985
 S         -3.4394421705       -1.4827777353        0.4289619536
 O         -3.5578068284       -2.5249533710        1.4267466759
 O         -2.7044774012       -1.8201673284       -0.7676779107
 C         -5.0684873322       -0.9001574520        0.0070028092
 C         -5.4860396811       -0.9159961236       -1.3093238470
 C         -6.7603244987       -0.4623554134       -1.6132976656
 C         -7.5896944867       -0.0045251879       -0.6009725144
 C         -7.1560920911        0.0018106255        0.7165586190
 C         -5.8839518016       -0.4511696839        1.0273427074
 H         -5.5094981821       -0.4667592834        2.0372467378
 H         -7.8039700334        0.3583132343        1.5010473704
 H         -8.5800084703        0.3493532896       -0.8403957117
 H         -7.0990275053       -0.4671132011       -2.6368810282
 H         -4.8034661261       -1.2753638108       -2.0630802162
 H         -2.2491025454       -0.5098894636        2.0550790116
 H         -3.6192721359        1.0472853034       -0.9213683393
 H         -2.3660160682        2.7248877463       -2.2308672583
 H         -0.0909287845        3.3687682672       -1.5770372132
 C          1.3567998012        2.4166732389        0.6050440206
 H          1.2860282125        2.7292480839        1.6604208273
 C          1.9914456297        3.5775402129       -0.1459042228
 C          3.4815810960        3.7114377430       -0.2380722455
 C          2.6796811307        3.4029901257       -1.4648414492
 H          2.5653034141        4.1785563698       -2.2081088298
 H          2.7256879107        2.4075578026       -1.8765098551
 H          3.9152149862        4.6950650288       -0.1373756517
 H          4.0821684254        2.9240824826        0.1944675925
 H          1.4368975008        4.4999085687       -0.0034258904
 O          1.5036495725        0.3664552337       -1.4794814698
