  62
        -98.94426156
 C          0.8221146594        1.1123570375        0.7680020934
 C          1.1548983289        0.6853236084       -0.5413299244
 C          2.0671249105       -0.4661151197       -0.6234211708
 C          2.4517269009       -1.0893609620        0.5037188767
 C          3.4603782494       -2.1983409271        0.5695621298
 C          4.8756823868       -1.6379633679        0.7730362837
 C          5.2417408189       -0.5157819049       -0.1989450072
 H          4.6143783136        0.3546568647        0.0069533241
 H          6.2723716717       -0.2241735660        0.0149036816
 C          5.1134805629       -0.8919652083       -1.6818859207
 H          5.9990925746       -0.5337599923       -2.2109464633
 H          5.0903708619       -1.9769497379       -1.7882614831
 C          3.8981968975       -0.2864309553       -2.3871447483
 H          4.0195296674       -0.4373208009       -3.4630219349
 H          3.8735301967        0.7918624115       -2.2099935243
 C          2.5369448856       -0.8731614350       -1.9910998868
 H          1.7905251256       -0.4853185919       -2.6900737049
 H          2.5649367927       -1.9598012133       -2.0826759760
 H          4.9521702114       -1.2476294212        1.7907136160
 H          5.5896576178       -2.4571454116        0.6698885639
 H          3.2126875656       -2.8461685302        1.4114619193
 H          3.4225808541       -2.7759664814       -0.3511772234
 O          2.0023104806       -0.7318565431        1.7344918871
 C          1.1940568402        0.3806051379        1.8978484381
 O          0.8708137712        0.6081769336        3.0818539129
 H         -1.7733133285        0.3966471875        0.7110178880
 C         -2.0155596900        1.2174519651        0.0514025504
 C         -1.2095326107        2.3492786691        0.0630687842
 C         -1.5356608905        3.4073120207       -0.7741873232
 C         -2.6396653674        3.3222887985       -1.6049433669
 C         -3.4327698649        2.1906335053       -1.6218809163
 C         -3.1107601727        1.1228792214       -0.7895602375
 N         -3.8604837739       -0.0557460913       -0.8218221746
 S         -3.7512961137       -1.2490909296        0.3229334585
 O         -4.7986580844       -2.1798608207       -0.0419195129
 O         -3.8270519335       -0.7221154492        1.6663160270
 C         -2.1719667404       -2.0222166509        0.0442838143
 C         -1.7694739687       -2.2755440981       -1.2513567038
 C         -0.5724011388       -2.9399200840       -1.4615888357
 C          0.1930410391       -3.3450703188       -0.3795453910
 C         -0.2208117541       -3.0773365193        0.9155547990
 C         -1.4140249536       -2.4080305593        1.1315742732
 H         -1.7646542360       -2.1694218475        2.1240970022
 H          0.3796383376       -3.3803862164        1.7586597281
 H          1.1168808511       -3.8761857917       -0.5429343400
 H         -0.2412666526       -3.1412942944       -2.4675116487
 H         -2.3901054758       -1.9514598905       -2.0701081057
 H         -4.7100550748       -0.0537203611       -1.3626026118
 H         -4.2867257668        2.1237252502       -2.2781594666
 H         -2.8827543674        4.1495789003       -2.2545069764
 H         -0.9168243271        4.2890530807       -0.7950908314
 C         -0.0327459189        2.3445478651        1.0074388102
 H         -0.4314469567        2.2219164575        2.0290766120
 C          0.7542653698        3.6476957684        1.0002878789
 C          2.2166617166        3.6705751775        1.3292278539
 C          1.7581017931        3.9645345356       -0.0657980170
 H          1.8251147265        4.9822685076       -0.4216104972
 H          1.9206326064        3.2223420112       -0.8309062990
 H          2.5926945331        4.4833118213        1.9325783121
 H          2.7014101876        2.7245116254        1.5236292493
 H          0.1675383598        4.4778532883        1.3816450683
 O          0.7363318928        1.2362323714       -1.5910689449
