  62
        -98.94578240
 C         -2.2214657388       -1.1429780807        0.1896414401
 C         -1.8863394591       -0.2224624611       -0.8332641503
 C         -2.6281209395        1.0483859587       -0.8163066708
 C         -3.5494764094        1.2634102089        0.1405469092
 C         -4.3485317797        2.5246924988        0.2954581187
 C         -3.6422699999        3.5261874594        1.2198999981
 C         -2.1734041400        3.7608739696        0.8672389879
 H         -1.6135638297        2.8387303498        1.0422135983
 H         -1.7847596301        4.5064989700        1.5644986675
 C         -1.9349573803        4.2328501790       -0.5739806923
 H         -1.2181553205        5.0565765392       -0.5577480228
 H         -2.8637224104        4.6194860286       -0.9948315724
 C         -1.3614546001        3.1615298887       -1.5029981319
 H         -0.4813191199        2.7135038792       -1.0357218818
 H         -1.0294393003        3.6530555484       -2.4212166922
 C         -2.3263522398        2.0391023083       -1.9061356213
 H         -1.8539426097        1.4635805981       -2.7076488711
 H         -3.2495167000        2.4731305479       -2.2955309714
 H         -3.6934508897        3.1493839598        2.2442830083
 H         -4.1827317802        4.4736085992        1.1804288978
 H         -4.5079913599        2.9700254683       -0.6846799315
 H         -5.3162966396        2.2658795487        0.7284506789
 O         -3.8300041691        0.3613719593        1.1161521196
 C         -3.1751055088       -0.8596660905        1.1663665001
 O         -3.5203054785       -1.5903870102        2.1177927904
 H         -0.1821250588       -0.7061037695        1.6763730597
 C          0.4909454514       -1.3560648896        1.1296709400
 C         -0.0394980584       -2.3498020701        0.3171841205
 C          0.8389480217       -3.1750603902       -0.3738281393
 C          2.2075087317       -3.0046101897       -0.2523377295
 C          2.7309310015       -2.0076103192        0.5496284000
 C          1.8607760213       -1.1725160792        1.2393282697
 N          2.3790764811       -0.1342686287        2.0305739692
 S          3.6498324008        0.7637695414        1.4133342687
 O          4.8956113210        0.1052302819        1.7218554089
 O          3.4864028705        2.0849057616        1.9806260681
 C          3.4269381207        0.8074375305       -0.3573165613
 C          4.5035968407        0.5377604304       -1.1779794613
 C          4.3232219905        0.5660875898       -2.5515307213
 C          3.0723324104        0.8485701592       -3.0779475113
 C          2.0001303004        1.1170749693       -2.2412306513
 C          2.1796485905        1.1047029200       -0.8683011913
 H          1.3565531105        1.3046976801       -0.2000379313
 H          1.0183843303        1.3091100089       -2.6428846513
 H          2.9274348603        0.8563896687       -4.1466295413
 H          5.1549239005        0.3585580297       -3.2054396113
 H          5.4533147508        0.3035288309       -0.7248830713
 H          1.6763540810        0.4624322813        2.4411196190
 H          3.7939942615       -1.8617474889        0.6553310899
 H          2.8768217418       -3.6549844498       -0.7940180192
 H          0.4515033718       -3.9526874406       -1.0109352789
 C         -1.5399283284       -2.4981673205        0.2406472607
 H         -1.8799422782       -2.9739032002        1.1728366509
 C         -1.9980315483       -3.3445677012       -0.9304382189
 C         -2.1129869379       -4.8322971211       -0.7938560082
 C         -3.3492009181       -3.9887935315       -0.8672444885
 H         -3.9481719682       -4.0234591721       -1.7648715084
 H         -3.9252038181       -3.8416469712        0.0352503315
 H         -1.8564114377       -5.2699213506        0.1591629519
 H         -1.8660064778       -5.4494444215       -1.6445731180
 H         -1.6811922485       -2.9389502715       -1.8843259091
 O         -1.0186973291       -0.4462400513       -1.7145857203
