  62
        -98.93955418
 C         -2.1231445962       -1.0247796605        0.0215889896
 C         -2.8615184783       -0.3564821344        1.0236102495
 C         -3.5862713333        0.8588628348        0.6126980127
 C         -3.4937108539        1.2822561071       -0.6620081047
 C         -4.0742198876        2.4992876612       -1.3522523470
 C         -5.1851036516        3.3159067158       -0.6968397198
 C         -6.5229523675        2.5882573184       -0.5683531891
 H         -7.2049236067        3.2262318052       -0.0021444378
 H         -6.9433481533        2.4565621017       -1.5684727666
 C         -6.4649022503        1.2129153333        0.0916202118
 H         -7.4810470033        0.8101367418        0.1140682949
 H         -5.8647583863        0.5371806871       -0.5211343461
 C         -5.9273861637        1.1958334767        1.5211273638
 H         -6.0913077596        0.1920566911        1.9220316532
 H         -6.4938054169        1.8979600266        2.1358265540
 C         -4.4291781348        1.5132491295        1.6695731338
 H         -4.2517036840        2.5860150949        1.6923819380
 H         -4.0909149492        1.1052880055        2.6267388077
 H         -4.8585932021        3.6887222031        0.2695785829
 H         -5.3446234217        4.1897348360       -1.3344860934
 H         -3.2233174201        3.1626135610       -1.5454262221
 H         -4.4173174514        2.1492122993       -2.3310674658
 O         -2.7386974717        0.6201523959       -1.5880352016
 C         -2.0420530531       -0.5376428590       -1.2817337840
 O         -1.4083863744       -1.0234625858       -2.2368677223
 H          0.0643959840       -0.2333162768        1.2810810507
 C          0.6901332559       -0.9068459425        0.7072501914
 C          0.1219506934       -2.0502728110        0.1577159073
 C          0.9345616298       -2.9043006146       -0.5750043596
 C          2.2734373929       -2.6059954781       -0.7638573074
 C          2.8311584562       -1.4624707153       -0.2231550802
 C          2.0288406262       -0.6048888277        0.5186333731
 N          2.5892567685        0.5577905126        1.0826754017
 S          3.3777708620        1.6129861784        0.0370104680
 O          3.3018168038        2.9068385126        0.6813664875
 O          2.8467919618        1.5309561044       -1.3042416327
 C          5.0668098278        1.0504344997        0.0662246367
 C          5.6966984480        0.7015192520       -1.1122125302
 C          7.0143788643        0.2728966372       -1.0656361316
 C          7.6746480801        0.2027609263        0.1515113025
 C          7.0279894429        0.5588268665        1.3258946524
 C          5.7113822979        0.9889188645        1.2864000788
 H          5.1730802319        1.2782812350        2.1734185817
 H          7.5449396790        0.5030836682        2.2703049827
 H          8.6995135801       -0.1315853446        0.1848127728
 H          7.5183843610       -0.0042596382       -1.9775875849
 H          5.1401307617        0.7668777439       -2.0337256272
 H          1.9388520254        1.0710782268        1.6610582867
 H          3.8713191238       -1.2241969345       -0.3743303729
 H          2.8913363497       -3.2743791741       -1.3437734464
 H          0.5179863032       -3.7975233706       -1.0101910959
 C         -1.3522580804       -2.2819355936        0.3827003900
 H         -1.5155608157       -2.4254770728        1.4612382736
 C         -1.9042419006       -3.4805702028       -0.3585572247
 C         -1.7683221028       -4.8545619030        0.2244726231
 C         -3.1071057660       -4.1825613750        0.1942741901
 H         -3.8540575258       -4.5457531708       -0.4955377401
 H         -3.5156705430       -3.8097145379        1.1222419238
 H         -1.5977939270       -5.6839959952       -0.4449655259
 H         -1.2687230392       -4.9452723191        1.1769548980
 H         -1.8409626331       -3.3690262346       -1.4351628968
 O         -2.9041474284       -0.7490959497        2.2216634968
