  62
        -98.93719992
 C         -1.3826719318       -1.2565693047        0.0103791629
 C         -2.6420373293       -1.3153136871        0.6600773156
 C         -3.4218481127       -0.0677287626        0.7301857381
 C         -2.8996108273        1.0634406683        0.2215082325
 C         -3.4253513175        2.4836267762        0.2056745082
 C         -4.8945296381        2.7763636810        0.4997275276
 C         -5.8759459598        2.2442368012       -0.5436788910
 H         -6.8902816066        2.4328602108       -0.1850583976
 H         -5.7410111128        2.8089332220       -1.4697150540
 C         -5.7378076338        0.7622093067       -0.8835679888
 H         -4.7663847163        0.5813874183       -1.3483541406
 H         -6.5001191642        0.5178654893       -1.6285081475
 C         -5.9129005476       -0.1981450224        0.2916446365
 H         -5.9596246202       -1.2115832219       -0.1165151373
 H         -6.8623119020        0.0025420062        0.7918882602
 C         -4.7886167049       -0.1735936573        1.3425044348
 H         -4.9454010019        0.6184668558        2.0710536740
 H         -4.8108070143       -1.1241461048        1.8834754394
 H         -4.9963931160        3.8648630934        0.5221138610
 H         -5.1609608285        2.4160277426        1.4890067878
 H         -3.1726558547        2.8825959282       -0.7816031255
 H         -2.8146626594        3.0342150716        0.9295755361
 O         -1.6704956002        1.0811617565       -0.3658049123
 C         -0.8881693840       -0.0565866936       -0.5049996654
 O          0.1835290771        0.1541154002       -1.0990319851
 O         -3.0986672497       -2.3718856249        1.1732126186
 C         -0.5546837699       -2.5316969915       -0.0146765598
 C          0.7986118162       -2.2231899527        0.5688316103
 C          0.9701414486       -2.2136147962        1.9491619788
 C          2.1739176098       -1.8248706198        2.5080283042
 C          3.2171589625       -1.4035048859        1.7020019710
 C          3.0466605756       -1.3926149399        0.3238063918
 C          1.8583469027       -1.8378590659       -0.2375861685
 H          1.7395242559       -1.8333436010       -1.3094781115
 N          4.0815792701       -0.9078420327       -0.5036004679
 S          4.6003670800        0.6613561160       -0.2211234575
 O          5.3663926161        1.0212884921       -1.3938735390
 O          5.3158723310        0.6929528469        1.0314644843
 C          3.1401764461        1.6785697404       -0.1071333287
 C          2.6623797488        2.2806142977       -1.2525121609
 C          1.5124283737        3.0474588885       -1.1776185142
 C          0.8550811378        3.1877924672        0.0334630313
 C          1.3452535616        2.5733160364        1.1741901528
 C          2.5005920907        1.8124662784        1.1080986326
 H          2.9121808071        1.3257247238        1.9771758649
 H          0.8265769312        2.6759630629        2.1147311113
 H         -0.0506908142        3.7716101211        0.0859220031
 H          1.1231537662        3.5199525177       -2.0652755491
 H          3.2002083889        2.1434955677       -2.1770552307
 H          3.8635324083       -1.0023163969       -1.4860926074
 H          4.1506996970       -1.0616043848        2.1192678831
 H          2.2978379761       -1.8345162315        3.5804749256
 H          0.1426927988       -2.5035617390        2.5818129345
 H         -1.0822337992       -3.2127952988        0.6715692881
 C         -0.4809882535       -3.2417095594       -1.3574276684
 C         -1.7093673236       -3.3754197125       -2.2061977118
 C         -0.5607914507       -2.5372142287       -2.6769673278
 H          0.0460373147       -2.9131132704       -3.4883369407
 H         -0.6695131682       -1.4645427771       -2.6772100132
 H         -1.9006813515       -4.3167125585       -2.6989587159
 H         -2.6012407332       -2.8702333822       -1.8647094591
 H          0.1725168717       -4.1082456572       -1.3131487041
