  62
        -98.93808743
 C          1.1777565405        1.0897127537        0.2143265742
 C          1.6849333838        0.0196508554        0.9899497467
 C          2.7278528246       -0.8191583732        0.3755719573
 C          3.0953391166       -0.5828213292       -0.8970604007
 C          4.0783022427       -1.2971062192       -1.8012813018
 C          5.0818278147       -2.2958447336       -1.2307514586
 C          6.1575778429       -1.6815532401       -0.3354013477
 H          6.7495507592       -2.4933632159        0.0926736023
 H          6.8221683465       -1.0767798925       -0.9574758026
 C          5.6454772533       -0.7905631293        0.7933664029
 H          6.5131010253       -0.4155412058        1.3428254616
 H          5.1327426079        0.0761362714        0.3710783647
 C          4.7200658783       -1.4747564869        1.7975026123
 H          4.5631627926       -0.7796295385        2.6266357580
 H          5.2062427086       -2.3669442752        2.1966026078
 C          3.3345135769       -1.8714986602        1.2584925853
 H          2.6581570784       -1.9819668332        2.1113852950
 H          3.3666088056       -2.8300748054        0.7452718528
 H          5.5858887421       -2.7526039947       -2.0869274026
 H          4.5612323097       -3.0950470090       -0.7111076369
 H          3.4655342270       -1.8108471223       -2.5509623265
 H          4.6201539856       -0.5092679380       -2.3346995374
 O          2.5232234116        0.4131086843       -1.6341727426
 C          1.5567132604        1.2630147704       -1.1162264988
 O          1.1354974782        2.1013600593       -1.9346373928
 O          1.2709485643       -0.2373926007        2.1528394152
 C          0.0938337800        1.9547344425        0.8295623483
 C         -1.1117922547        2.0068386047       -0.0765880286
 C         -1.8226072715        3.1637489038       -0.3668534330
 C         -2.9391040902        3.1096650024       -1.1842911162
 C         -3.3818807556        1.9102730367       -1.7106504799
 C         -2.6739935120        0.7466145928       -1.4291457195
 C         -1.5533672115        0.8071680105       -0.6193477694
 H         -0.9900494466       -0.0946358881       -0.4363112066
 N         -3.0751018714       -0.4917710914       -1.9481461802
 S         -2.7628978498       -1.9027913651       -1.1155343077
 O         -1.3689982851       -2.2587927013       -1.2215679981
 O         -3.6984936349       -2.8555072124       -1.6752485086
 C         -3.2028074501       -1.5540218301        0.5782800089
 C         -2.2382931412       -1.5174030320        1.5639030216
 C         -2.6145531513       -1.1982359908        2.8592547008
 C         -3.9427574020       -0.9264436089        3.1465704815
 C         -4.9034316353       -0.9791626812        2.1475758435
 C         -4.5320144121       -1.2927154627        0.8508372387
 H         -5.2511110762       -1.3522906194        0.0502662150
 H         -5.9368275634       -0.7732429047        2.3750553186
 H         -4.2293042267       -0.6743861346        4.1553542009
 H         -1.8595409114       -1.1556540500        3.6282673539
 H         -1.2096053651       -1.7276926519        1.3144695628
 H         -3.9664916765       -0.5014921529       -2.4198033112
 H         -4.2531681739        1.8726627381       -2.3460502811
 H         -3.4766144662        4.0177425948       -1.4114234427
 H         -1.4939346406        4.1112121960        0.0269789943
 H         -0.2069311421        1.3974549805        1.7341569244
 C          0.5622517131        3.3222168756        1.3056924023
 C          2.0143774448        3.6105259369        1.5398489677
 C          1.2916275017        4.2758905247        0.4091242155
 H          1.0710124674        5.3300493140        0.4938140605
 H          1.4996736555        3.9496861105       -0.5974672044
 H          2.2878760519        4.2032242784        2.4000552153
 H          2.7250494945        2.8320481990        1.3014702207
 H         -0.1277361683        3.7617142798        2.0192964986
