  62
        -98.93859945
 C         -0.0593809460       -1.8064692558       -1.0858432885
 C         -1.1956321024       -2.3110886974       -0.4041555621
 C         -2.4505887150       -1.5667630557       -0.5649729229
 C         -2.4618957767       -0.4689973234       -1.3410534765
 C         -3.6248189001        0.4667821798       -1.5152115695
 C         -3.7204968107        1.4087938716       -0.2970690293
 C         -4.9736436215        1.2124062235        0.5574059204
 H         -5.8279316772        1.6615485611        0.0454074377
 H         -4.8181977166        1.7624874516        1.4882932354
 C         -5.3365799096       -0.2381202037        0.8900744769
 H         -5.8460243055       -0.6926831964        0.0387601795
 H         -6.0617200708       -0.2051673559        1.7060789497
 C         -4.1684873752       -1.1429666581        1.3044014485
 H         -4.5048555437       -1.7832233033        2.1228399507
 H         -3.3364284419       -0.5487338541        1.6866129644
 C         -3.6519973785       -2.0677591275        0.1852721446
 H         -4.4623998406       -2.2882158795       -0.5152654677
 H         -3.3324469937       -3.0144229397        0.6308913128
 H         -3.7027802625        2.4473051587       -0.6349553201
 H         -2.8327052655        1.2640440695        0.3247286061
 H         -4.5441322646       -0.1027773442       -1.6321590825
 H         -3.4502363436        1.0403680805       -2.4261175530
 O         -1.3665678977       -0.0344344468       -2.0102126833
 C         -0.1267285524       -0.6542755237       -1.8691917313
 O          0.7820802814       -0.0845236045       -2.4977344737
 O         -1.1541753019       -3.3472735701        0.3152257762
 C          1.2596723695       -2.4951451622       -0.7756391032
 C          1.7472791448       -1.9858707967        0.5590565482
 C          2.2437613261       -2.8365113095        1.5386438310
 C          2.6169820512       -2.3376278464        2.7750768927
 C          2.4720928632       -0.9932663327        3.0683244395
 C          1.9752932138       -0.1353691097        2.0935035314
 C          1.6526242484       -0.6309135198        0.8410145693
 H          1.2778774536        0.0431360582        0.0866365175
 N          1.7879883476        1.2327225073        2.3381824012
 S          0.4827147589        2.0079866376        1.6245435290
 O          0.2706909008        3.1804935534        2.4504568221
 O         -0.6578582876        1.1301527711        1.4917491543
 C          1.0728526907        2.5375313928        0.0322627621
 C          0.1554177494        2.7195199930       -0.9819186194
 C          0.5984884576        3.1649485524       -2.2162343276
 C          1.9450038244        3.4233971094       -2.4123536783
 C          2.8533615202        3.2430512403       -1.3810394823
 C          2.4167804109        2.7995464003       -0.1436784327
 H          3.0976093554        2.6393924650        0.6759681704
 H          3.9017050822        3.4394672425       -1.5393123669
 H          2.2884106025        3.7600326735       -3.3778013119
 H         -0.1076491011        3.2934000809       -3.0207102622
 H         -0.8816138757        2.4866373793       -0.7979233706
 H          1.9318574351        1.5283202566        3.2927229161
 H          2.7286889210       -0.6111071273        4.0445231229
 H          3.0006543638       -3.0074882571        3.5295571997
 H          2.3108920354       -3.8955679951        1.3379651252
 H          1.0149000616       -3.5622678960       -0.6500189819
 C          2.3053822892       -2.3872089837       -1.8724902183
 C          3.4723073964       -1.4537361127       -1.7951870612
 C          3.6869087508       -2.9288233269       -1.6508175574
 H          4.1650898911       -3.4643167216       -2.4567903856
 H          3.9241197250       -3.3043001919       -0.6670369052
 H          3.7799712508       -0.9643373107       -2.7059079775
 H          3.5672115872       -0.8338188063       -0.9172760334
 H          1.8745298687       -2.5358863832       -2.8566090247
