  62
        -98.95004004
 C         -1.9023907716       -1.0435475567        0.0196266965
 C         -1.3221485685       -1.8139375058       -1.0182744282
 C         -0.2481261070       -2.7292555237       -0.6144071978
 C          0.0920478073       -2.8293999886        0.6835622162
 C          1.1197328597       -3.7635752619        1.2634709344
 C          2.5629276807       -3.2456897562        1.2004753184
 C          3.1897075362       -3.2424702570       -0.1938120439
 H          4.2597354202       -3.0679930397       -0.0666677282
 H          3.0711217997       -4.2253187797       -0.6511616053
 C          2.6245163592       -2.1655820937       -1.1292724151
 H          3.4410382298       -1.6480314821       -1.6390404354
 H          2.1002145353       -1.4069060017       -0.5442782732
 C          1.6788227800       -2.6818766663       -2.2137652050
 H          2.2316636212       -3.3097876396       -2.9168373526
 H          1.3022099813       -1.8124170199       -2.7603366408
 C          0.4783311808       -3.4803369641       -1.6879401496
 H         -0.2183221435       -3.6351238702       -2.5159012777
 H          0.8068556746       -4.4528584376       -1.3202747382
 H          3.1662454876       -3.8883024876        1.8455451497
 H          2.5943464053       -2.2335774665        1.6098914351
 H          1.0578499569       -4.7279433677        0.7580482212
 H          0.8507794264       -3.9038644809        2.3126383249
 O         -0.5106344053       -2.0939129411        1.6544833255
 C         -1.4839632912       -1.1512050883        1.3456812127
 O         -1.8874973593       -0.4996197273        2.3267810439
 O         -1.6931228495       -1.7462896682       -2.2210435869
 C         -2.9587706358       -0.0096874076       -0.3356683030
 C         -2.3839989975        1.3618974755       -0.0748195985
 C         -2.9294789828        2.2790142758        0.8130247794
 C         -2.2971995036        3.4899342286        1.0386949105
 C         -1.1100476750        3.8022487391        0.4023772146
 C         -0.5605713637        2.8957457357       -0.4988747783
 C         -1.2131772141        1.6983541104       -0.7452768673
 H         -0.7911548829        1.0033147608       -1.4571678901
 N          0.6380426531        3.1911483195       -1.1710490436
 S          1.8511096709        2.0566738126       -1.3530698681
 O          2.9532479023        2.8032196391       -1.9192911321
 O          1.3748372138        0.9393660936       -2.1242165971
 C          2.2839551893        1.5441170997        0.3000692585
 C          3.4418788180        2.0362147968        0.8703626929
 C          3.7656143883        1.6628459529        2.1647615691
 C          2.9227783982        0.8184643459        2.8718643349
 C          1.7598391478        0.3381525175        2.2894921725
 C          1.4389767472        0.6979450638        0.9898902103
 H          0.5416616255        0.3303426194        0.5160022398
 H          1.0887303969       -0.3102318525        2.8323881918
 H          3.1701449431        0.5300548284        3.8813200707
 H          4.6704605059        2.0326308350        2.6194435078
 H          4.0661101111        2.6904950259        0.2836991099
 H          1.0336860926        4.0904389810       -0.9373890361
 H         -0.6109471774        4.7396215379        0.5956128827
 H         -2.7283040901        4.1946176018        1.7333652757
 H         -3.8411616515        2.0429288891        1.3359573571
 H         -3.1141511535       -0.1143855241       -1.4195735818
 C         -4.2659276440       -0.2804984805        0.3756635988
 C         -5.5468364524        0.2515158634       -0.1920026632
 C         -5.2534380895       -1.2166869158       -0.2512372692
 H         -5.8112637372       -1.8821976037        0.3903178405
 H         -4.9916807344       -1.6497151767       -1.2058685602
 H         -6.3111233167        0.5935204797        0.4891176839
 H         -5.4887019274        0.8168569382       -1.1099205319
 H         -4.1589521757       -0.3187904064        1.4533523824
