  62
        -98.93814414
 C         -1.4891640363       -1.5455297914        0.5069132747
 C         -2.2915446649       -1.0042890936       -0.5257948096
 C         -3.2264028662        0.0696137685       -0.1326613097
 C         -3.2116545996        0.5346437024        1.1275038973
 C         -4.1035803291        1.5614127056        1.7832115760
 C         -4.5604443073        2.7654270889        0.9540271512
 C         -3.4817127625        3.3438572135        0.0280428643
 H         -3.3951179889        4.4170080706        0.2075958895
 H         -2.5186848365        2.8922144272        0.2660859994
 C         -3.7863755695        3.1348559223       -1.4565617853
 H         -4.8411610095        3.3557563076       -1.6338304359
 H         -3.2027215263        3.8505869303       -2.0407867040
 C         -3.4704897884        1.7406211868       -1.9956388467
 H         -2.3900251224        1.5740283793       -1.9981591170
 H         -3.8029008082        1.7002724834       -3.0355641115
 C         -4.1200471189        0.5769902391       -1.2287065116
 H         -4.2393966199       -0.2579110712       -1.9243584697
 H         -5.1021790927        0.8518171581       -0.8520867205
 H         -4.8815130403        3.5291521094        1.6649545714
 H         -5.4372427598        2.4973282280        0.3670951577
 H         -4.9849933666        1.0370975157        2.1659404354
 H         -3.5426127809        1.9120537323        2.6538513280
 O         -2.3336675492        0.0608075557        2.0605148346
 C         -1.4749767486       -0.9858059662        1.7854492413
 O         -0.7528828974       -1.3216332915        2.7473261054
 O         -2.2694598540       -1.4028596930       -1.7174147243
 C         -0.5410848657       -2.7145687157        0.2766071850
 C          0.7132276327       -2.1744660299       -0.3646538226
 C          0.8653265000       -2.0402770425       -1.7393106805
 C          2.0086966895       -1.4608357850       -2.2621480890
 C          3.0152755698       -0.9996675092       -1.4320857956
 C          2.8669141711       -1.1244380830       -0.0568752499
 C          1.7264602949       -1.7133606933        0.4661535953
 H          1.6020386588       -1.7909643868        1.5385349830
 N          3.8663462449       -0.6144231039        0.7975345916
 S          4.2545328836        0.9966849568        0.5468529569
 O          5.2368447178        1.0932762052       -0.5035949038
 O          4.6634341707        1.5059320861        1.8368912855
 C          2.7309881030        1.7605572594        0.0146493643
 C          1.6295290179        1.6684756956        0.8423533939
 C          0.4289327288        2.2161399996        0.4232497937
 C          0.3496532310        2.8487620183       -0.8076578847
 C          1.4653916713        2.9366912996       -1.6251649648
 C          2.6675999665        2.3835403618       -1.2147958520
 H          3.5566861276        2.4199204883       -1.8229643485
 H          1.3986438319        3.4286643224       -2.5819997489
 H         -0.5874813459        3.2748262459       -1.1302450907
 H         -0.4382160808        2.1339421742        1.0609183289
 H          1.7105359998        1.1741840568        1.7979686285
 H          3.6712199833       -0.7772378838        1.7754131879
 H          3.9065721921       -0.5357945199       -1.8230193212
 H          2.1148077774       -1.3603317327       -3.3314050288
 H          0.0723609648       -2.3631558225       -2.3936969526
 H         -0.2711302543       -3.0776359528        1.2777073167
 C         -1.1735144957       -3.8555271453       -0.4906981579
 C         -0.4992597786       -5.1933194941       -0.4797746826
 C         -1.7835380156       -4.9949480850        0.2665303211
 H         -2.6827791274       -5.4486164613       -0.1223917700
 H         -1.7465597124       -4.9588092520        1.3459201787
 H         -0.5141162918       -5.7860271994       -1.3813410076
 H          0.4106022415       -5.2891888975        0.0937867227
 H         -1.6708775677       -3.5473649281       -1.4000835070
