  62
        -98.94442259
 C         -1.8329438634       -0.0271264359       -0.4237905476
 C         -2.9802988279        0.3448990424       -1.1645070858
 C         -4.2657982000       -0.1398360408       -0.6455530302
 C         -4.2805583825       -0.9069006589        0.4600093499
 C         -5.5220724092       -1.4243249459        1.1259850404
 C         -6.0228572467       -0.4495937446        2.2010469051
 C         -6.1231432745        0.9989939655        1.7229342988
 H         -6.5144978641        1.5891241056        2.5544659793
 H         -5.1195370602        1.3731315200        1.5080253591
 C         -7.0139366602        1.2002269158        0.4890281875
 H         -7.6672163606        0.3366864875        0.3590582857
 H         -7.6543038465        2.0685690825        0.6576963035
 C         -6.2485774340        1.4569276384       -0.8104133560
 H         -5.5252900237        2.2615530385       -0.6563226937
 H         -6.9631094977        1.7987867829       -1.5638638501
 C         -5.5075410004        0.2491445836       -1.3977127277
 H         -6.1911726545       -0.5983077574       -1.4788466423
 H         -5.1750078946        0.5206355955       -2.4039094835
 H         -7.0008524204       -0.7896299866        2.5465766457
 H         -5.3325676950       -0.4839727050        3.0472220585
 H         -6.2935691043       -1.5804330644        0.3744597903
 H         -5.2865803519       -2.3804866270        1.5964078019
 O         -3.1554905081       -1.2635543866        1.1316487429
 C         -1.9047970097       -0.8276255771        0.7159880155
 O         -0.9617693830       -1.2182793524        1.4300087321
 O         -2.9299017211        1.0436189844       -2.2123328714
 C         -0.4729177856        0.4581373335       -0.8908503756
 C          0.4527727824       -0.7080447606       -1.1294805924
 C         -0.0011926259       -1.7809653510       -1.8930015676
 C          0.8114768428       -2.8709232013       -2.1331928859
 C          2.0961117918       -2.9138951540       -1.6204008501
 C          2.5660053495       -1.8422535784       -0.8712343788
 C          1.7491145364       -0.7431668875       -0.6395672130
 H          2.1291132636        0.0712278598       -0.0463281242
 N          3.8815650480       -1.8401725733       -0.3929055001
 S          4.3422151468       -1.0201777065        0.9856658471
 O          5.6434954675       -1.5735945312        1.3002314265
 O          3.3558000925       -1.0956152775        2.0367972769
 C          4.5554067854        0.6661711202        0.4537400392
 C          5.0861391415        0.9186772202       -0.7958437413
 C          5.2905467006        2.2335972612       -1.1824509421
 C          4.9727809427        3.2684076545       -0.3161020191
 C          4.4463755020        2.9983071442        0.9376363523
 C          4.2340430250        1.6851032201        1.3283185395
 H          3.8134573512        1.4299335322        2.2884798965
 H          4.1997789054        3.8034929606        1.6117350472
 H          5.1336107103        4.2910086855       -0.6187322179
 H          5.6979448353        2.4475074096       -2.1573646400
 H          5.3229961391        0.0916004683       -1.4437017569
 H          4.3897929297       -2.7033076005       -0.5137205654
 H          2.7297170311       -3.7694234563       -1.7980961882
 H          0.4416622596       -3.6987500564       -2.7194877661
 H         -1.0078991577       -1.7515215705       -2.2874166621
 H         -0.6586862009        0.9508179762       -1.8574139301
 C          0.0815064295        1.4840170701        0.0752125363
 C          0.9797114278        2.5759944150       -0.4220413635
 C         -0.4227903725        2.8930348919       -0.0005859144
 H         -0.5774346182        3.4351281263        0.9202730918
 H         -1.1514423752        3.1158246245       -0.7663677858
 H          1.7932142874        2.9015520956        0.2082594371
 H          1.2069500012        2.5914036177       -1.4770529380
 H          0.2697111859        1.0699577009        1.0605715127
