  62
        -98.93821796
 C         -0.8876747947       -1.2573773850        0.7463377164
 C         -1.1651421815       -0.4852324547       -0.4066778672
 C         -2.1276042108        0.6210617902       -0.2291427445
 C         -2.5410747886        0.9454843364        1.0065342972
 C         -3.4767620390        2.0499753479        1.4338980437
 C         -4.7209241065        2.2971118532        0.5717604667
 C         -5.3470705282        1.0314595251       -0.0316712302
 H         -6.4128105281        1.0151686327        0.2039475071
 H         -4.9016857450        0.1430326201        0.4197225487
 C         -5.2000687715        0.9578499977       -1.5531750813
 H         -5.4151257298        1.9421170138       -1.9744322202
 H         -5.9484742216        0.2643175351       -1.9439544122
 C         -3.8368391406        0.4839859135       -2.0551238810
 H         -3.8330739500        0.5663517063       -3.1444352583
 H         -3.7048267784       -0.5744597285       -1.8139633322
 C         -2.6246458980        1.2502133498       -1.4985859152
 H         -2.8562628307        2.3035328839       -1.3676127244
 H         -1.8051141087        1.1549078362       -2.2154223491
 H         -4.4794312227        2.9931444704       -0.2299114684
 H         -5.4511898170        2.7961166268        1.2112866326
 H         -3.7836081309        1.7845691548        2.4488271694
 H         -2.9044535526        2.9796734792        1.5099535051
 O         -2.0953768959        0.2838547886        2.1152062761
 C         -1.3117878215       -0.8520429430        2.0124174604
 O         -1.0531029499       -1.3954682862        3.1060080044
 H          1.8775496923       -0.8028141720        1.1746077363
 C          2.0824224699       -1.3619905519        0.2724776569
 C          1.1718481193       -2.3185225007       -0.1600734645
 C          1.4565085768       -3.0357846820       -1.3146360731
 C          2.6240961328       -2.7939517433       -2.0163558803
 C          3.5268219466       -1.8396325320       -1.5855182519
 C          3.2512774251       -1.1179831799       -0.4292764175
 N          4.1588516968       -0.1598613884        0.0478418887
 S          3.6248101841        1.2015639270        0.8408151451
 O          4.7468494678        2.1147254690        0.7664292465
 O          3.1793550849        0.8719054356        2.1721752088
 C          2.2788394477        1.8690704461       -0.1195416540
 C          2.4554741802        2.0423683627       -1.4778519489
 C          1.4483352760        2.6427315963       -2.2142424235
 C          0.2939006473        3.0740814796       -1.5808471894
 C          0.1304500639        2.8910329168       -0.2174253524
 C          1.1276626270        2.2757544775        0.5213369663
 H          1.0318837661        2.1028256363        1.5826604909
 H         -0.7685368038        3.2234816806        0.2756394426
 H         -0.4836434427        3.5559638507       -2.1518205331
 H          1.5679555390        2.7768919784       -3.2771795118
 H          3.3718437343        1.7160536831       -1.9417586691
 H          4.9434934371        0.0324480018       -0.5568206123
 H          4.4379072313       -1.6534397080       -2.1332001153
 H          2.8316211339       -3.3534905110       -2.9157203867
 H          0.7549957067       -3.7685535638       -1.6773300290
 C         -0.0638066342       -2.5301246885        0.6781537483
 H          0.2685482397       -2.7092918422        1.7146384961
 C         -0.8704775088       -3.7528336399        0.2621033932
 C         -2.3349389665       -3.8498104883        0.5672546032
 C         -1.8728218232       -3.7120096071       -0.8505866412
 H         -1.9536198267       -4.5718607600       -1.4993734718
 H         -2.0222044966       -2.7699334169       -1.3535697851
 H         -2.8039381971       -2.9993610528        1.0414095207
 H         -2.7289548650       -4.8006556126        0.8934347495
 H         -0.2983890958       -4.6691524330        0.3706677793
 O         -0.6573293582       -0.6999445656       -1.5353217876
