  62
        -98.93723526
 C          2.1871207615        0.4491198602       -0.2756700396
 C          2.9008500127       -0.7557102574       -0.0551812871
 C          4.2246316063       -0.6028098409        0.5685214303
 C          4.6613939293        0.6125240047        0.9412191664
 C          5.9730283815        0.9179784307        1.6119687783
 C          7.1511709649        1.0639901725        0.6390562789
 C          7.6445002782       -0.2416036664        0.0139249750
 H          8.5997020377       -0.0245014364       -0.4683356971
 H          7.8361731265       -0.9704891883        0.8019279569
 C          6.6920631128       -0.8450614295       -1.0278536564
 H          5.9792545614       -0.0837285285       -1.3535577375
 H          7.2614464992       -1.1470922367       -1.9098720927
 C          5.9194327784       -2.0724917096       -0.5444863757
 H          6.6175363892       -2.8877008745       -0.3421217346
 H          5.2500104184       -2.3935166989       -1.3466225781
 C          5.0722452359       -1.8310320749        0.7116291597
 H          5.7137278180       -1.7516758055        1.5887915477
 H          4.4018498439       -2.6838622355        0.8418005424
 H          7.9787312422        1.5113714592        1.1944559000
 H          6.8665824854        1.7623045207       -0.1516159289
 H          5.8399639589        1.8667103295        2.1363153430
 H          6.1991740501        0.1439575169        2.3457729434
 O          3.9219067407        1.7403152645        0.7602968832
 C          2.6909429981        1.6873938181        0.1315363385
 O          2.1410894504        2.8001564602       -0.0085835455
 O          2.4767570279       -1.9008736911       -0.3484278064
 C          0.8332641359        0.5016893705       -0.9624058375
 C         -0.2982423832        0.3159948872        0.0129017579
 C         -0.3237691358       -0.7470486966        0.9106646678
 C         -1.4051053630       -0.9311992506        1.7537182924
 C         -2.4886848130       -0.0702318066        1.7064386606
 C         -2.4644573700        0.9993744663        0.8237955361
 C         -1.3715065299        1.1945596285       -0.0064115481
 H         -1.3648290237        2.0332882662       -0.6900202513
 N         -3.6160821976        1.8331052726        0.7308647498
 S         -4.6258366542        1.2976140609       -0.5138072915
 O         -3.8887987884        1.1434737936       -1.7503355544
 O         -5.7353006501        2.2232795835       -0.5576272820
 C         -5.1509927044       -0.2897353694        0.0848613071
 C         -6.1827587313       -0.3481963356        1.0009192928
 C         -6.5596091110       -1.5833391919        1.5035213154
 C         -5.8969132493       -2.7290000792        1.0885284304
 C         -4.8619855919       -2.6520731301        0.1687634349
 C         -4.4819408043       -1.4205438184       -0.3402921006
 H         -3.6832603073       -1.3162333104       -1.0576513201
 H         -4.3461000513       -3.5430242227       -0.1513172213
 H         -6.1888964714       -3.6893654376        1.4833329438
 H         -7.3646055458       -1.6489614642        2.2176451209
 H         -6.6682736050        0.5686088204        1.2921374835
 H         -3.3804214926        2.8004767567        0.5491298032
 H         -3.3436510691       -0.2111643673        2.3473715934
 H         -1.4102380461       -1.7607540170        2.4436803536
 H          0.5087029556       -1.4341849840        0.9271749335
 H          0.7556598035        1.5259665108       -1.3622855815
 C          0.7210898920       -0.4455301141       -2.1511002921
 C         -0.1025312362       -1.6944723801       -2.1499102330
 C         -0.5533533679       -0.5064902524       -2.9421881271
 H         -0.4893645666       -0.5461002815       -4.0194706749
 H         -1.4037433603        0.0539068069       -2.5777930876
 H          0.2932587404       -2.5512341246       -2.6733636673
 H         -0.6467185975       -1.9473690699       -1.2540182196
 H          1.6449781494       -0.4827371834       -2.7200733887
