  62
        -98.95003587
 C          1.9027620873        1.0432138648        0.0171716906
 C          1.3215547062        1.8121319136       -1.0212817197
 C          0.2483690236        2.7284947508       -0.6175093703
 C         -0.0894984476        2.8314472797        0.6808602895
 C         -1.1145823904        3.7683974370        1.2608507889
 C         -2.5583339991        3.2515546234        1.2034256277
 C         -3.1885577580        3.2452352022       -0.1892522928
 H         -4.2583593076        3.0715372995       -0.0592190437
 H         -3.0705278900        4.2269168126       -0.6492372325
 C         -2.6258643846        2.1658283938       -1.1233283027
 H         -2.1003394331        1.4084478450       -0.5377093925
 H         -3.4438835629        1.6474122619       -1.6297772334
 C         -1.6829639450        2.6791788165       -2.2116803418
 H         -1.3089337724        1.8083215975       -2.7578187317
 H         -2.2373474560        3.3063350553       -2.9142132521
 C         -0.4799420474        3.4774810693       -1.6912474407
 H          0.2147000329        3.6288289912       -2.5215265601
 H         -0.8061276901        4.4515655284       -1.3255895107
 H         -2.5893538869        2.2405946132        1.6156607974
 H         -3.1594006212        3.8964094518        1.8483421874
 H         -0.8424755016        3.9116372274        2.3088068892
 H         -1.0532372224        4.7311047473        0.7522221092
 O          0.5136070934        2.0968246909        1.6521232997
 C          1.4854946760        1.1526372534        1.3434549203
 O          1.8893668769        0.5018414641        2.3249434004
 O          1.6914978073        1.7429616348       -2.2242685894
 C          2.9589231602        0.0087569775       -0.3372074089
 C          2.3838258234       -1.3619117240       -0.0724420697
 C          2.9267075049       -2.2750719829        0.8210912105
 C          2.2934800877       -3.4847216245        1.0507501497
 C          1.1076270290       -3.7993902473        0.4131241087
 C          0.5606360775       -2.8967729484       -0.4935248315
 C          1.2145416947       -1.7009805367       -0.7442703007
 H          0.7942648236       -1.0089165976       -1.4600931308
 N         -0.6371327313       -3.1942108612       -1.1664433925
 S         -1.8498517439       -2.0600950042       -1.3533095532
 O         -2.9511111716       -2.8078486168       -1.9196482242
 O         -1.3723258061       -0.9445341828       -2.1262799025
 C         -2.2852157165       -1.5438039857        0.2980362066
 C         -1.4384556591       -0.7006072738        0.9893667775
 C         -1.7608769610       -0.3389972949        2.2880736374
 C         -2.9270800503       -0.8143475079        2.8680072263
 C         -3.7718377576       -1.6553847498        2.1592279555
 C         -3.4466091757       -2.0306646387        0.8657380756
 H         -4.0720000636       -2.6827383801        0.2778079850
 H         -4.6792578571       -2.0212083522        2.6119207347
 H         -3.1754100518       -0.5247472988        3.8768969362
 H         -1.0885967630        0.3072915766        2.8320082880
 H         -0.5387013696       -0.3364796814        0.5174135483
 H         -1.0339404292       -4.0919203623       -0.9286943530
 H          0.6075030012       -4.7355163486        0.6097074181
 H          2.7225040689       -4.1862393636        1.7499113398
 H          3.8368398439       -2.0365440908        1.3455918213
 H          3.1133924508        0.1110527881       -1.4214630888
 C          4.2665630689        0.2809545205        0.3727126822
 C          5.5466816707       -0.2562018361       -0.1918285870
 C          5.2559085171        1.2121935632       -0.2585951868
 H          5.8146084750        1.8799473144        0.3798357938
 H          4.9952417468        1.6408727928       -1.2154766469
 H          6.3099598910       -0.5963338844        0.4913675535
 H          5.4878269928       -0.8260440261       -1.1068913572
 H          4.1595850480        0.3248515000        1.4501828221
