  62
        -98.93607101
 C         -2.1422963998       -0.9244211811        0.0894028599
 C         -2.6925313600       -0.0375980310        1.0423479798
 C         -3.0609492901        1.3025739289        0.5562522796
 C         -2.8299729700        1.6222311188       -0.7289076204
 C         -3.0687442200        2.9365812687       -1.4302369206
 C         -4.3651618102        3.6917881285       -1.1102268609
 C         -5.5827275701        2.7976955184       -0.8338078309
 H         -6.4137345800        3.1265387683       -1.4603731111
 H         -5.3566894699        1.7655945984       -1.1070914908
 C         -6.0437155603        2.8502385585        0.6245447490
 H         -7.0806737703        2.5103395084        0.6773332689
 H         -6.0220269805        3.8887550686        0.9616799089
 C         -5.2362171503        1.9916533987        1.5967734192
 H         -5.4250834802        0.9328297687        1.4003850593
 H         -5.5952009505        2.1991558488        2.6075712191
 C         -3.7141765103        2.2070504889        1.5620826494
 H         -3.4662805704        3.2509028789        1.3859951193
 H         -3.3109157904        1.9133282891        2.5352021395
 H         -4.5717048401        4.3354423784       -1.9670128610
 H         -4.2037861504        4.3488648387       -0.2569457009
 H         -3.0381634799        2.6970303286       -2.4961192006
 H         -2.2121809901        3.5864491788       -1.2257860206
 O         -2.2753111097        0.7409091187       -1.6103710603
 C         -1.9139710496       -0.5415712212       -1.2315683001
 O         -1.4149862394       -1.2272456912       -2.1443328499
 O         -2.8507418401       -0.3444131509        2.2553147598
 C         -1.7171289797       -2.3139223310        0.5292951601
 C         -0.2370169196       -2.4836441608        0.2884155204
 C          0.3241294306       -3.5984999608       -0.3196114695
 C          1.6877949206       -3.6604416907       -0.5531934293
 C          2.5199133005       -2.6191827405       -0.1859436793
 C          1.9702877203       -1.5079943705        0.4372892705
 C          0.6085310002       -1.4525317807        0.6792430703
 H          0.1865026401       -0.5753014707        1.1565887102
 N          2.8146936401       -0.4268908404        0.7984928505
 S          3.2727297501        0.5659905095       -0.4959058795
 O          2.3737586100        1.7013978494       -0.5641679498
 O          3.4035980404       -0.2355626806       -1.6846003694
 C          4.8820966100        1.1103918898        0.0440495906
 C          5.0303368898        2.3578332799        0.6173034305
 C          6.2847664297        2.7474197301        1.0605613406
 C          7.3622442598        1.8852309802        0.9279557109
 C          7.1972719900        0.6347074901        0.3508487810
 C          5.9462070401        0.2406868899       -0.0951533191
 H          5.7722671803       -0.7165326402       -0.5579661391
 H          8.0377312501       -0.0325286698        0.2474854612
 H          8.3370770097        2.1906404703        1.2739762710
 H          6.4156877595        3.7200813101        1.5069082405
 H          4.1661991097        2.9979800998        0.6931822403
 H          2.3682299499        0.1721416896        1.4817244504
 H          3.5775545505       -2.6460065904       -0.3888918691
 H          2.1054271508       -4.5298934207       -1.0377050991
 H         -0.3091903993       -4.4143792909       -0.6275238494
 H         -1.8980899098       -2.3471873609        1.6142714401
 C         -2.5681295694       -3.3710754811       -0.1413004199
 C         -2.8171386494       -4.6839533311        0.5375224503
 C         -3.9209541195       -3.6770633412        0.4259232300
 H         -4.7338227694       -3.8724394314       -0.2572064401
 H         -4.2175454897       -3.1399611212        1.3150957599
 H         -2.8753022292       -5.5747120112       -0.0694421597
 H         -2.3687130495       -4.8376830609        1.5072268703
 H         -2.4679512693       -3.3594633112       -1.2210401198
