  62
        -98.94441947
 C         -1.9035668989       -0.8720273973        0.3736425698
 C         -2.1855672568        0.3276571504       -0.3234176260
 C         -3.4772318605        0.9621570687       -0.0167026912
 C         -4.2838438500        0.4179566778        0.9114436195
 C         -5.6405542263        0.9377737474        1.2862979651
 C         -6.7399243312        0.2848205045        0.4367242473
 C         -6.4523993275        0.3026477208       -1.0645760541
 H         -5.5855573035       -0.3298396885       -1.2690007097
 H         -7.3088173726       -0.1543510487       -1.5650153135
 C         -6.2069324751        1.7014411426       -1.6472019165
 H         -6.5906249634        2.4601315909       -0.9640686726
 H         -6.7653470340        1.7947275026       -2.5810870803
 C         -4.7431805694        2.0056400580       -1.9714896074
 H         -4.3282890756        1.1991048730       -2.5812079043
 H         -4.7115098674        2.9190194798       -2.5716232584
 C         -3.8219613963        2.2202601772       -0.7638289346
 H         -2.8736042857        2.6187718120       -1.1360720042
 H         -4.2623967634        2.9593431781       -0.0914491328
 H         -6.8490563756       -0.7553881923        0.7521916788
 H         -7.6813429904        0.8003401487        0.6352649392
 H         -5.6596513721        2.0181635528        1.1566741408
 H         -5.8190255581        0.7044293941        2.3373782795
 O         -3.9654949846       -0.7130830700        1.5892805075
 C         -2.7866478271       -1.3878150995        1.3295639517
 O         -2.6357760143       -2.4259914461        2.0035842824
 O         -1.4164444556        0.8656030008       -1.1658819526
 C         -0.6373076205       -1.6891551757        0.1627668141
 C          0.5359721585       -1.0919772954        0.9021119155
 C          1.1634526037       -1.7882879323        1.9279871802
 C          2.2581538988       -1.2483672089        2.5812344753
 C          2.7494894194       -0.0058717642        2.2233500627
 C          2.1236874494        0.6995619554        1.2038101730
 C          1.0308519669        0.1548989394        0.5469671709
 H          0.5444719217        0.7113139753       -0.2404669216
 N          2.6294072793        1.9594877683        0.8188431353
 S          4.2252825915        1.9505847526        0.3022580726
 O          5.0955492121        1.9159972629        1.4508621129
 O          4.3647990318        3.0991450987       -0.5645465701
 C          4.3761488260        0.4331796585       -0.6232121766
 C          5.0451155208       -0.6428185191       -0.0768216738
 C          5.0766200154       -1.8372080063       -0.7785747528
 C          4.4382761218       -1.9352003137       -2.0048616722
 C          3.7727158420       -0.8437437979       -2.5415292564
 C          3.7357443508        0.3519830323       -1.8437301581
 H          3.2291752633        1.2213330600       -2.2319713284
 H          3.2783137025       -0.9198948708       -3.4968744690
 H          4.4595191973       -2.8676479999       -2.5466885026
 H          5.5937495415       -2.6877949627       -0.3648757994
 H          5.5275008506       -0.5235470834        0.8792694453
 H          2.0465830208        2.4176471182        0.1320107332
 H          3.6054728729        0.4289628814        2.7138627312
 H          2.7344520363       -1.8009795891        3.3765761989
 H          0.7794569391       -2.7549669560        2.2197266189
 H         -0.8457118143       -2.6713338625        0.6069706289
 C         -0.2929911145       -1.8884460638       -1.3016364041
 C          0.6213072101       -3.0118854504       -1.6825911111
 C         -0.8353884463       -3.0799648523       -2.0289060182
 H         -1.1292029983       -2.9629820368       -3.0613167475
 H         -1.4620078147       -3.7628149490       -1.4733603017
 H          1.3325709116       -2.8482385703       -2.4767731010
 H          0.9843810132       -3.6499027174       -0.8914301525
 H         -0.2132571080       -0.9627029760       -1.8552898749
