  62
        -98.94284306
 C         -2.0621691303       -0.8032280405        0.5493731498
 C         -2.8216245000        0.2572909991        1.1112324510
 C         -4.2503046501        0.2835228096        0.7837156314
 C         -4.7728976404       -0.6868182395        0.0125959406
 C         -6.2166180005       -0.8216681489       -0.3886597792
 C         -6.6055518507        0.0199529224       -1.6117413683
 C         -6.6964446704        1.5258882921       -1.3622173568
 H         -7.1864353805        1.9661141831       -2.2329426262
 H         -7.3371450701        1.7122276714       -0.4997445165
 C         -5.3409193002        2.2169440717       -1.1575575664
 H         -5.3041678602        3.1314721723       -1.7538259555
 H         -4.5409350504        1.5672359419       -1.5202203273
 C         -5.0402920598        2.6083923302        0.2894389939
 H         -4.0425748197        3.0539207400        0.3237033541
 H         -5.7571517396        3.3625037200        0.6220833648
 C         -5.0691556898        1.4366607993        1.2795602727
 H         -4.6324205195        1.7735191983        2.2230351830
 H         -6.0969468098        1.1231772192        1.4620241427
 H         -7.5834282608       -0.3301203871       -1.9502364484
 H         -5.8876101709       -0.1739146770       -2.4119057587
 H         -6.3745840807       -1.8747444886       -0.6310629502
 H         -6.8568382903       -0.5589403096        0.4539380912
 O         -4.0205972607       -1.6986890992       -0.4887322006
 C         -2.6527691406       -1.7743981796       -0.2601911010
 O         -2.1126239309       -2.7419997191       -0.8310340521
 H          1.3347491102        1.0445009683        1.1958378809
 C          1.2365895199        0.7260553094        0.1692458706
 C          0.2835233596       -0.2190331201       -0.1823282501
 C          0.1850517793       -0.6045733488       -1.5152538105
 C          1.0134933491       -0.0436544880       -2.4701034101
 C          1.9748372294        0.8858539715       -2.1124638694
 C          2.0910539497        1.2666413702       -0.7818708091
 N          3.0812559500        2.1810128396       -0.3669314784
 S          4.2232237001        1.6082089083        0.7192577207
 O          3.5835915404        1.2590913072        1.9605075105
 O          5.2380198203        2.6354747881        0.7811382215
 C          4.8788384097        0.1520086890       -0.0771804908
 C          4.1750620696       -1.0334868309        0.0051914381
 C          4.6412865892       -2.1359347803       -0.6936946631
 C          5.7950746191       -2.0365075098       -1.4559503132
 C          6.4930003792       -0.8401285498       -1.5237558122
 C          6.0283620396        0.2681905396       -0.8343462810
 H          6.5383978697        1.2177355995       -0.8575926502
 H          7.3920738491       -0.7667031494       -2.1141709923
 H          6.1515595288       -2.8974294693       -1.9991513542
 H          4.0956991891       -3.0645716303       -0.6430625738
 H          3.2822868597       -1.0804253514        0.6071109883
 H          3.5523919299        2.6421445003       -1.1333377581
 H          2.6292125793        1.3138442621       -2.8569204192
 H          0.9190203688       -0.3445461970       -3.5023706804
 H         -0.5441655909       -1.3493310184       -1.7940107211
 C         -0.5844425502       -0.8289501511        0.8929533095
 H         -0.4891302199       -0.1959336020        1.7863306001
 C         -0.0620111803       -2.2121499215        1.2357281280
 C          1.1423119398       -2.3354103026        2.1187618076
 C         -0.2103916301       -2.7248476528        2.6349033275
 H         -0.4283379402       -3.7722695830        2.7791052365
 H         -0.6865473398       -2.0768581935        3.3566066582
 H          1.8547771697       -3.1199217825        1.9130191466
 H          1.5865348401       -1.4261403730        2.4989749184
 H         -0.1746342907       -2.9238239907        0.4280299573
 O         -2.3254389297        1.1385270982        1.8641437018
