  62
        -98.94848183
 C          0.8324648712        1.2247609401        0.5670738753
 C          1.2052586452        0.5380103926       -0.6130858279
 C          2.1460404200       -0.5738717738       -0.4250662786
 C          2.4748186958       -0.9661446793        0.8185132363
 C          3.4140993473       -2.0867711188        1.1738004002
 C          4.8902360941       -1.6658977062        1.1999956120
 C          5.5149328502       -1.4171637652       -0.1736434582
 H          6.5939781548       -1.3427243644       -0.0249370054
 H          5.3337533747       -2.2800233813       -0.8150548174
 C          5.0240021156       -0.1411833000       -0.8721125111
 H          5.8801942109        0.4040328815       -1.2758353422
 H          4.5457093878        0.5138905318       -0.1401245266
 C          4.0542584774       -0.3828832786       -2.0293886384
 H          3.7476635658        0.5887520594       -2.4245215979
 H          4.5665165651       -0.9245195338       -2.8274245675
 C          2.7876859726       -1.1609121822       -1.6452225830
 H          2.0713350415       -1.0789011984       -2.4652434172
 H          3.0286634589       -2.2108156600       -1.4862159931
 H          4.9868817648       -0.7674337640        1.8141111031
 H          5.4497676613       -2.4651213717        1.6917280407
 H          3.2889989915       -2.9136181371        0.4747271543
 H          3.1334189859       -2.4261478088        2.1733119475
 O          1.9653974685       -0.3739570194        1.9336016470
 C          1.1925029410        0.7725399506        1.8355554796
 O          0.8869161107        1.2837231732        2.9334864003
 O          0.7969287628        0.8478380641       -1.7609638244
 C          0.0162444940        2.5005662486        0.4728796935
 C         -1.3141036980        2.2360425340       -0.1867552537
 C         -1.8269313135        3.0139015365       -1.2167701360
 C         -3.0676041900        2.7268088310       -1.7587447357
 C         -3.8198517986        1.6675761618       -1.2867021986
 C         -3.3191555876        0.8897104766       -0.2479396113
 C         -2.0757365966        1.1765632672        0.2912014218
 H         -1.6975710021        0.5744479957        1.1054151740
 N         -4.0691637599       -0.1756967675        0.2701505596
 S         -3.3284261418       -1.5132274891        0.9224061087
 O         -4.3602728211       -2.5303098559        0.9032697091
 O         -2.7821889349       -1.2112178904        2.2223955293
 C         -2.0285424388       -2.0024529681       -0.1970333849
 C         -0.8892452599       -2.5667458884        0.3380616982
 C          0.0778295986       -3.0692712485       -0.5164535749
 C         -0.1034463142       -2.9872779884       -1.8876139585
 C         -1.2434705734       -2.3991248770       -2.4106796196
 C         -2.2220427059       -1.9107603815       -1.5607404721
 H         -3.1222960695       -1.4629249560       -1.9483215325
 H         -1.3756993628       -2.3232338529       -3.4777810080
 H          0.6486227260       -3.3830744442       -2.5512706500
 H          0.9632837522       -3.5258890255       -0.1054120979
 H         -0.7801935135       -2.5982826799        1.4113356828
 H         -4.9123271267       -0.4060495014       -0.2338714002
 H         -4.7877636150        1.4447216532       -1.7086702979
 H         -3.4529034221        3.3354755451       -2.5623550866
 H         -1.2555155218        3.8438876822       -1.5975316907
 H         -0.1819571482        2.8104030287        1.5100122534
 C          0.8315788954        3.5784991094       -0.2124600296
 C          0.6058475052        5.0226165704        0.1162615212
 C          1.8495092050        4.3321108438        0.5875504723
 H          2.7901855234        4.5841304184        0.1212801816
 H          1.9350518049        4.0869737718        1.6366925395
 H          0.6963455659        5.7528618722       -0.6736461477
 H         -0.1513573555        5.2560649339        0.8494765546
 H          1.0919174724        3.3183173594       -1.2319420550
