  62
        -98.94848082
 C          0.8286228888        1.2368019324        0.5654670792
 C          1.1956393481        0.5414045069       -0.6114274826
 C          2.1364564252       -0.5697988548       -0.4196247633
 C          2.4684016290       -0.9549816146        0.8253468178
 C          3.4057947778       -2.0758544184        1.1846546934
 C          4.8830429839       -1.6585349298        1.2046837186
 C          5.5047748641       -1.4186922736       -0.1718689882
 H          6.5844136302       -1.3458350386       -0.0265289985
 H          5.3198466008       -2.2846774379       -0.8079588054
 C          5.0144155359       -0.1456349241       -0.8760977974
 H          4.5394759244        0.5143918668       -0.1463766500
 H          5.8706747840        0.3956133831       -1.2849473557
 C          4.0413204198       -0.3911635319       -2.0297713170
 H          4.5504324817       -0.9382064052       -2.8261506497
 H          3.7357897685        0.5790239185       -2.4293190692
 C          2.7741837134       -1.1645748011       -1.6381060574
 H          2.0560566441       -1.0855564560       -2.4568310040
 H          3.0134779849       -2.2140806567       -1.4741454405
 H          5.4419890966       -2.4563364063        1.6993960094
 H          4.9834280683       -0.7569189553        1.8135588928
 H          3.2767044481       -2.9061686909        0.4904957016
 H          3.1266254559       -2.4090088375        2.1866988759
 O          1.9644678416       -0.3543383204        1.9383765219
 C          1.1935244590        0.7930406466        1.8355279514
 O          0.8938461712        1.3127774437        2.9310740667
 O          0.7824985446        0.8435553985       -1.7596859784
 C          0.0115090133        2.5115336645        0.4657754128
 C         -1.3225737231        2.2418631371       -0.1843010666
 C         -1.8488986290        3.0233319223       -1.2047977524
 C         -3.0920110822        2.7317096857       -1.7387112856
 C         -3.8334233372        1.6642974397       -1.2678832272
 C         -3.3192149776        0.8827973227       -0.2384480190
 C         -2.0734822961        1.1743663403        0.2927093719
 H         -1.6849353565        0.5694208992        1.0998610884
 N         -4.0583014350       -0.1907809795        0.2783952320
 S         -3.3076918597       -1.5240189064        0.9272511484
 O         -4.3359758328       -2.5448564286        0.9174573295
 O         -2.7526993676       -1.2180444516        2.2226591434
 C         -2.0144051091       -2.0125397245       -0.2002020494
 C         -0.8773645780       -2.5872559187        0.3287159263
 C          0.0842563934       -3.0913242890       -0.5310197742
 C         -0.1001441997       -3.0010657575       -1.9012094119
 C         -1.2376075660       -2.4024711977       -2.4179881294
 C         -2.2107739662       -1.9121233039       -1.5628574742
 H         -3.1086203906       -1.4556427478       -1.9459439143
 H         -1.3724225672       -2.3202774432       -3.4843480425
 H          0.6471656222       -3.3988873138       -2.5691245567
 H          0.9679024472       -3.5558441439       -0.1247751852
 H         -0.7657105988       -2.6248499439        1.4014048994
 H         -4.9026189671       -0.4252731310       -0.2217250227
 H         -4.8033085830        1.4380519276       -1.6834522107
 H         -3.4881250423        3.3436364281       -2.5346062395
 H         -1.2861184529        3.8598649403       -1.5841967704
 H         -0.1809593632        2.8295870949        1.5015304748
 C          0.8222979900        3.5844095497       -0.2329041998
 C          0.6056273299        5.0305360841        0.0931034592
 C          1.8521108188        4.3371790645        0.5525971746
 H          2.7882867855        4.5840302048        0.0745943116
 H          1.9488003227        4.0954885518        1.6016000552
 H          0.6897702198        5.7576260614       -0.7004391755
 H         -0.1420992254        5.2695123033        0.8342564676
 H          1.0699418579        3.3194035204       -1.2543050677
