  62
        -98.93377196
 C          2.4903524164        0.1029637545       -0.5801400197
 C          2.2211898367        0.6430474402        0.7006796037
 C          1.8459735903        2.0642052939        0.7280796429
 C          1.7946398396        2.7585353671       -0.4222351600
 C          1.4510472703        4.2161352014       -0.5329940804
 C         -0.0437978661        4.4433397517       -0.7899606347
 C         -0.9654390173        3.6792374056        0.1605605459
 H         -1.9894914733        3.9772483683       -0.0778640983
 H         -0.8909627300        2.6096504515       -0.0472904381
 C         -0.6978080530        3.9254115558        1.6517652166
 H         -0.1366169660        4.8518627077        1.7824946775
 H         -1.6568593013        4.0524086040        2.1583311979
 C          0.0320023117        2.7813694234        2.3594304281
 H         -0.4384520367        1.8316105676        2.0908632307
 H         -0.0822898668        2.9175774574        3.4383500072
 C          1.5340052268        2.6673827148        2.0681317607
 H          1.9697647606        1.9893354006        2.8077326779
 H          2.0082618221        3.6454728571        2.1756613670
 H         -0.2726618301        4.1270141119       -1.8106002464
 H         -0.2434109161        5.5144806645       -0.7126097620
 H          1.7508756839        4.7185806972        0.3850295294
 H          2.0189827088        4.6347329553       -1.3664113033
 O          2.0553908106        2.2025273966       -1.6351883886
 C          2.3796143920        0.8608442650       -1.7432326078
 O          2.5598515973        0.4669362927       -2.9168395894
 O          2.3023712607       -0.0179275291        1.7674003164
 C          2.8702627877       -1.3669266777       -0.7316608782
 C          1.8878465320       -2.1908188323        0.0693461870
 C          2.1509387067       -3.1919402449        0.9933963412
 C          1.1126539214       -3.8464861703        1.6396410129
 C         -0.2053319268       -3.5109528061        1.4081538226
 C         -0.4857686848       -2.5044338632        0.4880163351
 C          0.5499171805       -1.8955980380       -0.1934751860
 H          0.3161839137       -1.1414209436       -0.9323206661
 N         -1.8106582093       -2.0780707159        0.2865852301
 S         -2.1850128816       -0.7949781820       -0.7202825836
 O         -2.0438505680       -1.1697620880       -2.1134563306
 O         -1.4557273049        0.3669499576       -0.2846717485
 C         -3.9131083931       -0.6077019279       -0.3266140296
 C         -4.2668364927        0.1977432433        0.7387657143
 C         -5.6067976569        0.3233911205        1.0691271624
 C         -6.5659617022       -0.3570220989        0.3338140302
 C         -6.1966994914       -1.1603163859       -0.7345602659
 C         -4.8580590249       -1.2891917410       -1.0700275045
 H         -4.5261532738       -1.8905520826       -1.9011309948
 H         -6.9448023162       -1.6847152890       -1.3069062245
 H         -7.6081554975       -0.2576594017        0.5928799343
 H         -5.8969800538        0.9503304857        1.8967151682
 H         -3.4857096605        0.7120505075        1.2747239769
 H         -2.5041628071       -2.8104366360        0.2916275130
 H         -1.0074367306       -4.0036817469        1.9344132419
 H          1.3446805426       -4.6241469363        2.3517741029
 H          3.1575541330       -3.4718226829        1.2439018284
 H          2.6837235640       -1.6059067104       -1.7939000640
 C          4.3754280377       -1.4788285456       -0.5364094880
 C          5.0631401863       -1.6821710642        0.7763836403
 C          5.1434902807       -2.7417303424       -0.2839783059
 H          6.0832152829       -2.8597569776       -0.8036042537
 H          4.6041135888       -3.6658100551       -0.1600819709
 H          5.9464160776       -1.0929804865        0.9767352612
 H          4.4452560387       -1.8333129154        1.6463177253
 H          4.8569936026       -0.7748434983       -1.2132627584
