  62
        -98.94615801
 C          1.4189247495        1.1301445450       -0.0566098081
 C          2.3301774386        0.6816557711        0.9362134375
 C          3.0577099312       -0.5560924655        0.6387514708
 C          2.8213847456       -1.2056915864       -0.5148127777
 C          3.4616353334       -2.4941446043       -0.9554707468
 C          4.8334328936       -2.3123168876       -1.6196397051
 C          5.9727308857       -1.9397354177       -0.6700297922
 H          5.9969103226       -2.6447547357        0.1615042209
 H          6.9046281991       -2.0606854697       -1.2259705521
 C          5.9042776648       -0.5045002280       -0.1294901101
 H          5.2271256104        0.0869014703       -0.7501689897
 H          6.8906235483       -0.0407784056       -0.2026607092
 C          5.4602721519       -0.3965001842        1.3294176551
 H          5.4114948101        0.6625974817        1.5948133208
 H          6.2033018807       -0.8707451771        1.9743883182
 C          4.0899482656       -1.0222394677        1.6201200177
 H          4.1637837877       -2.1093311567        1.6075479723
 H          3.7710826531       -0.7028459051        2.6150727992
 H          5.0882167882       -3.2576286150       -2.1044408258
 H          4.7464343721       -1.5526810595       -2.4000809290
 H          3.5561767123       -3.1680601544       -0.1035029018
 H          2.7865732715       -2.9469916165       -1.6853046652
 O          1.9238697006       -0.7577815661       -1.4309884432
 C          1.2103951922        0.4176374575       -1.2372043515
 O          0.4443498066        0.6887953771       -2.1832579132
 O          2.5252099690        1.2903779877        2.0203163811
 C          0.6441091583        2.4048513439        0.2433031599
 C         -0.7629086206        2.0210857894        0.6299893710
 C         -1.1146293587        1.8991719912        1.9703972403
 C         -2.3736818682        1.4551059356        2.3339622719
 C         -3.2995791800        1.0992235663        1.3691751422
 C         -2.9509399263        1.2058701840        0.0293488446
 C         -1.7026017006        1.6872814379       -0.3345035149
 H         -1.4400352319        1.7465801833       -1.3790932957
 N         -3.8569899217        0.7670446757       -0.9578588575
 S         -4.4122081581       -0.8011450420       -0.7459042383
 O         -4.6357100656       -1.3232354608       -2.0758978993
 O         -5.5685158014       -0.7801730003        0.1162106907
 C         -3.0849673325       -1.6798645361        0.0665916610
 C         -1.8487467264       -1.7313765834       -0.5466937216
 C         -0.8115558739       -2.3893264782        0.0938449601
 C         -1.0229222290       -2.9804069367        1.3296305113
 C         -2.2712413603       -2.9245900873        1.9294573828
 C         -3.3126321739       -2.2672735592        1.2946493467
 H         -4.2969142992       -2.1939495179        1.7277451057
 H         -2.4335292941       -3.3860304774        2.8901149922
 H         -0.2079297095       -3.4844772226        1.8246538981
 H          0.1599009353       -2.4260275702       -0.3734105057
 H         -1.6953294469       -1.2578465597       -1.5041598831
 H         -3.4983929880        0.8829697184       -1.8956005525
 H         -4.2773034912        0.7267375893        1.6293561036
 H         -2.6329832389        1.3718135452        3.3781305923
 H         -0.3815070069        2.1370476533        2.7274439529
 H          1.1320744939        2.8358333517        1.1272963612
 C          0.7025118431        3.4182957813       -0.8802882177
 C          0.3498188218        4.8452450304       -0.5889805846
 C          1.7734975428        4.4659314053       -0.8623831202
 H          2.2175637709        4.7643191674       -1.8003252868
 H          2.4677100344        4.4582914964       -0.0347706802
 H         -0.1862276731        5.4075438015       -1.3380559736
 H          0.0777804909        5.0938538491        0.4256615734
 H          0.4253638293        3.0175261243       -1.8466797060
