  62
        -98.94134456
 C         -2.1950821799       -0.7076754700       -0.3650263004
 C         -3.3992346199       -0.9029590603        0.3580117594
 C         -4.1040671698        0.3122132295        0.7841821201
 C         -3.5641485898        1.5138895496        0.5106036208
 C         -4.1956130997        2.8337860894        0.8440333915
 C         -5.0765522196        3.3356310601       -0.3088803183
 C         -6.0554951997        2.2883211905       -0.8396940789
 H         -6.6438254296        2.7633052409       -1.6276742586
 H         -5.4913182997        1.4765182107       -1.3043225393
 C         -6.9988153497        1.7055906099        0.2218360308
 H         -7.0228187297        2.3585850495        1.0949800011
 H         -8.0106240797        1.6745720902       -0.1877051693
 C         -6.6536126498        0.2822407697        0.6636002800
 H         -6.5381375898       -0.3565762798       -0.2155231703
 H         -7.4947028299       -0.1073551206        1.2431424398
 C         -5.3967196599        0.1393951991        1.5312010100
 H         -5.4496606499        0.8324906687        2.3733760003
 H         -5.3794160699       -0.8803771611        1.9267576294
 H         -5.6290268996        4.2114793200        0.0360321822
 H         -4.4269630496        3.6451668905       -1.1308216681
 H         -4.7896240197        2.7275360590        1.7497268014
 H         -3.4001791497        3.5586548793        1.0255953619
 O         -2.3897309097        1.6626012999       -0.1517905691
 C         -1.6759010898        0.5639619601       -0.6091572397
 O         -0.6255173297        0.8619510704       -1.2100674595
 O         -3.8627254800       -2.0421574405        0.6314969988
 C         -1.4279795099       -1.9414046298       -0.8146554011
 C         -0.1813280099       -2.0357772403        0.0295570489
 C         -0.2631432400       -2.5925714910        1.3029457786
 C          0.8391612700       -2.6124344415        2.1366945086
 C          2.0434214900       -2.0698905514        1.7227150990
 C          2.1312778301       -1.5048580807        0.4580927893
 C          1.0287597801       -1.5034974802       -0.3862851908
 H          1.1055202101       -1.0452483396       -1.3594652705
 N          3.3497472201       -0.9388734905        0.0296913296
 S          4.0973043301        0.1119416288        1.1236944102
 O          4.8610630501       -0.6779489817        2.0583254598
 O          3.1240254102        1.0077556486        1.7085615907
 C          5.1999774502        1.0027897194        0.0444075807
 C          6.4923370602        0.5465544094       -0.1303111795
 C          7.3320767403        1.2307196998       -0.9949677791
 C          6.8673832603        2.3511445502       -1.6672370785
 C          5.5668879304        2.7965532202       -1.4819615583
 C          4.7214127203        2.1167072298       -0.6195473187
 H          3.7050808103        2.4323074897       -0.4406709585
 H          5.2075338104        3.6683244005       -2.0048910678
 H          7.5221636404        2.8832036205       -2.3391240382
 H          8.3439460503        0.8889993698       -1.1412608292
 H          6.8091993701       -0.3242817109        0.4192695700
 H          3.2413548802       -0.4802708600       -0.8658708101
 H          2.9063473600       -2.0564466618        2.3690507390
 H          0.7607572899       -3.0467430721        3.1222632284
 H         -1.2103817600       -2.9919227512        1.6381502684
 H         -2.0746994800       -2.7926776899       -0.5636495516
 C         -1.1653879799       -1.9496041690       -2.3056684411
 C         -0.6992612699       -3.2156190987       -2.9585314817
 C         -2.0876477699       -2.7107849584       -3.2082928815
 H         -2.3193190698       -2.2937146079       -4.1768851313
 H         -2.9129568799       -3.2367999587       -2.7512962918
 H          0.0239284901       -3.1488155183       -3.7567274117
 H         -0.5804097200       -4.0839284590       -2.3283784422
 H         -0.7736787698       -1.0116989088       -2.6794484905
