  62
        -98.94633558
 C         -1.2928130208       -1.2037146710        0.5418829559
 C         -1.6671626880       -0.4982013317       -0.6281883161
 C         -2.4349049313        0.7348633402       -0.4054491062
 C         -2.6391975120        1.1814272476        0.8463143889
 C         -3.3647780640        2.4425760274        1.2308743426
 C         -4.8886588335        2.2818012479        1.3179575865
 C         -5.6029101805        2.1418559374       -0.0268562069
 H         -6.6717892030        2.2543042702        0.1653728524
 H         -5.3032933028        2.9596140913       -0.6829969720
 C         -5.3665009987        0.7989513004       -0.7320808777
 H         -4.9782572761        0.0734987127       -0.0134309649
 H         -6.3188413678        0.4076599236       -1.0969777734
 C         -4.4173873309        0.8683102846       -1.9286010985
 H         -4.2971562640       -0.1421856345       -2.3270989882
 H         -4.8611215621        1.4876300983       -2.7111910302
 C         -3.0223432075        1.4191320252       -1.6022641164
 H         -3.0739364767        2.4958229647       -1.4424518196
 H         -2.3683410346        1.2141422714       -2.4527489618
 H         -5.1140715115        1.4145331474        1.9429777319
 H         -5.2818308303        3.1664189577        1.8243777474
 H         -2.9928426983        2.7287477013        2.2173757636
 H         -3.1251744122        3.2374268650        0.5236141452
 O         -2.1657874971        0.5283252003        1.9420047813
 C         -1.5141565265       -0.6870252591        1.8188251395
 O         -1.1691095150       -1.1948634600        2.9070433709
 O         -1.3877659548       -0.8694622917       -1.7952677041
 C         -0.5476840860       -2.5268067285        0.4473866279
 C          0.8512991394       -2.2373285187       -0.0393907252
 C          1.3470159074       -2.6332739796       -1.2732635197
 C          2.6231248624       -2.2625837643       -1.6653336527
 C          3.4274484746       -1.4979949170       -0.8405116724
 C          2.9409896163       -1.1047164775        0.4001405262
 C          1.6650375516       -1.4739034214        0.7902418354
 H          1.2817069325       -1.1590178541        1.7530492206
 N          3.7452109011       -0.3058758020        1.2426539161
 S          4.2058891926        1.1660092329        0.5850846126
 O          5.3040137301        0.9540451943       -0.3232081955
 O          4.4736699919        2.0294153200        1.7132324494
 C          2.7720251136        1.7298236288       -0.3136587986
 C          2.7606774626        1.6820518332       -1.6923095898
 C          1.6168344392        2.0790274213       -2.3659161278
 C          0.5097555981        2.5102425648       -1.6530994503
 C          0.5349588729        2.5479693682       -0.2676667786
 C          1.6744952811        2.1502354422        0.4109397206
 H          1.7280591940        2.1723703482        1.4883747418
 H         -0.3310140097        2.8755729556        0.2855052121
 H         -0.3803904255        2.8175659753       -2.1778336309
 H          1.5891203909        2.0461132862       -3.4429688588
 H          3.6438644769        1.3425281090       -2.2079423909
 H          3.3285202669       -0.1550309017        2.1508640781
 H          4.4179701954       -1.1913341300       -1.1353080878
 H          2.9947132306       -2.5715549361       -2.6302774443
 H          0.7303686251       -3.2184083071       -1.9346889472
 H         -0.4723653147       -2.9048655029        1.4767791021
 C         -1.3014478180       -3.5368731590       -0.3887931355
 C         -0.9914336974       -4.9951807006       -0.2410175690
 C         -2.2848908330       -4.4470927682        0.2807860235
 H         -3.1980116041       -4.6924209106       -0.2405340353
 H         -2.4064932757       -4.3527898768        1.3504159070
 H         -1.0172877338       -5.6206850256       -1.1201479099
 H         -0.2335925324       -5.2744095212        0.4754586073
 H         -1.5589009302       -3.1667776863       -1.3731298866
