  62
        -98.93900205
 C         -2.6716879296       -0.9500714815        0.3829868714
 C         -2.6931251198        0.1959778183        1.2169876916
 C         -3.6550049002        1.2444451181        0.8568287820
 C         -4.4360219604        1.0733687181       -0.2255878378
 C         -5.4341362908        2.0737142478       -0.7309158274
 C         -4.8040466813        3.0174423183       -1.7644314374
 C         -3.4761260914        3.6261362686       -1.3141633975
 H         -2.7305546611        2.8317737088       -1.2304162678
 H         -3.1409471118        4.2979110589       -2.1072978774
 C         -3.5482129914        4.3962304783        0.0119145127
 H         -3.0061998817        5.3375207785       -0.1005697772
 H         -4.5851930614        4.6450951079        0.2399994129
 C         -2.9285688809        3.6657989683        1.2049004424
 H         -2.8319777510        4.3795853481        2.0273540825
 H         -1.9221013609        3.3282084587        0.9444473621
 C         -3.7182361404        2.4622640579        1.7354596623
 H         -3.2729210001        2.1668274078        2.6900026922
 H         -4.7549601405        2.7531417475        1.9163711126
 H         -5.5167513416        3.8145746881       -1.9834870470
 H         -4.6283601513        2.4554909185       -2.6845876775
 H         -5.8236513408        2.6452500375        0.1092934228
 H         -6.2555000107        1.5305042677       -1.2012108474
 O         -4.3694273201       -0.0254409417       -1.0172199281
 C         -3.4780711798       -1.0556883715       -0.7511494185
 O         -3.5172820596       -1.9812522213       -1.5824017087
 O         -1.9433095896        0.3324440884        2.2222776615
 C         -1.6922352191       -2.0586869712        0.7337454710
 C         -0.5116323193       -1.9791471206       -0.2034712793
 C         -0.4005803393       -2.7501116104       -1.3534335494
 C          0.6973805505       -2.6083696598       -2.1845408096
 C          1.7038807902       -1.7063535495       -1.8890150096
 C          1.6032506202       -0.9330767998       -0.7396865894
 C          0.5003113404       -1.0729805004        0.0895069007
 H          0.4133759804       -0.4631493206        0.9804072309
 N          2.6267142800       -0.0058511595       -0.4264277695
 S          4.1360961103       -0.6856318591       -0.0702704099
 O          4.5853051203       -1.4368004687       -1.2132303901
 O          4.0710125207       -1.4099246094        1.1822727700
 C          5.1323804298        0.7786739312        0.1218870402
 C          5.4514707399        1.2270581010        1.3888153902
 C          6.2165315496        2.3755031812        1.5204540803
 C          6.6439077791        3.0531904516        0.3888587504
 C          6.3138641390        2.5910791118       -0.8767382696
 C          5.5507089094        1.4429696515       -1.0150857497
 H          5.2790293593        1.0421969217       -1.9774475398
 H          6.6498667587        3.1201930321       -1.7539080696
 H          7.2402553888        3.9457304118        0.4941525105
 H          6.4764370896        2.7354025911        2.5030094504
 H          5.1054226803        0.6635447007        2.2405932702
 H          2.3574473799        0.5669973302        0.3645310607
 H          2.5696895601       -1.6058333991       -2.5221995298
 H          0.7702861005       -3.2105319096       -3.0777649598
 H         -1.1839997791       -3.4460316506       -1.6050125794
 H         -1.3300844090       -1.8115687013        1.7416373109
 C         -2.3384258287       -3.4265514914        0.7786571608
 C         -1.5987357682       -4.5556172413        1.4297598104
 C         -2.8081281082       -3.9703527619        2.0931775608
 H         -3.7176056680       -4.5517357422        2.1136516508
 H         -2.6627383283       -3.3568770420        2.9704761009
 H         -1.6750002179       -5.5407965913        0.9960354402
 H         -0.6296037782       -4.3368175011        1.8532947803
 H         -2.9409409688       -3.6505435015       -0.0920825991
