  62
        -98.94196537
 C         -1.2252498308       -0.8345836802        0.3415211291
 C         -2.0557656810       -0.6514962189       -0.7873325306
 C         -3.0658042109        0.4172865910       -0.6859306492
 C         -3.1025840008        1.1820875898        0.4188436317
 C         -4.0814588207        2.2779495794        0.7377862531
 C         -5.2598454906        1.7289822985        1.5602173127
 C         -6.4129834007        1.1608770794        0.7335311722
 H         -7.1093145106        0.6890370086        1.4305281718
 H         -6.9429957108        1.9821376200        0.2465827433
 C         -6.0148215709        0.1363112007       -0.3322389190
 H         -5.2743538008       -0.5529862498        0.0773511901
 H         -6.9017274809       -0.4503862291       -0.5791531895
 C         -5.4740457811        0.7807101021       -1.6174141384
 H         -5.6995771011        1.8470132321       -1.6022194471
 H         -6.0009992712        0.3653037731       -2.4788336488
 C         -3.9729549911        0.5756258224       -1.8754793388
 H         -3.8243379512       -0.3387006569       -2.4586856699
 H         -3.5989987212        1.4010760631       -2.4908199080
 H         -5.6550664805        2.5324672677        2.1850923237
 H         -4.8695572005        0.9571211477        2.2285735417
 H         -4.4261051408        2.7624928705       -0.1710303162
 H         -3.5426527706        3.0104728287        1.3428676639
 O         -2.2431309806        1.0096167686        1.4606511114
 C         -1.2864039006        0.0123716386        1.4472158801
 O         -0.5583644104       -0.0205201926        2.4612460899
 O         -1.9689795211       -1.3510255077       -1.8310090114
 C         -0.1648197508       -1.9195012002        0.3387617577
 C          0.8600714190       -1.6482738889       -0.7367765222
 C          1.4249974289       -2.6395053080       -1.5292794134
 C          2.3882694687       -2.3166493069       -2.4697853832
 C          2.8312144687       -1.0147661368       -2.6194493318
 C          2.2761198189       -0.0173799177       -1.8262514205
 C          1.2927098090       -0.3405422487       -0.9061001308
 H          0.8478830391        0.4481132106       -0.3187643698
 N          2.7001671689        1.3177409724       -1.9206799191
 S          2.8237933591        2.2135663908       -0.5113093181
 O          1.5210604492        2.6552219803       -0.0792894773
 O          3.7648466991        3.2642617312       -0.8392931170
 C          3.5579222593        1.0939395494        0.6687427705
 C          4.8708259692        0.7225926597        0.4465676699
 C          5.4676235294       -0.1882215313        1.3015572287
 C          4.7425556295       -0.7163600525        2.3594293083
 C          3.4295901096       -0.3287455428        2.5729494889
 C          2.8265695694        0.5852909482        1.7219954901
 H          1.8020949595        0.8909471881        1.8700608706
 H          2.8571153897       -0.7330384237        3.3927968885
 H          5.2024259796       -1.4316101633        3.0229436374
 H          6.4909527093       -0.4861800911        1.1401042182
 H          5.4036193091        1.1631996806       -0.3804238697
 H          3.4853717288        1.4731020931       -2.5358526490
 H          3.5903896086       -0.7685202559       -3.3455934316
 H          2.8104995786       -3.0939859862       -3.0881006442
 H          1.1060740489       -3.6625060681       -1.4161694846
 H          0.3502243294       -1.8384935413        1.3083208477
 C         -0.8006345608       -3.2904200900        0.2386385262
 C         -0.1465032207       -4.4745089308        0.8831464947
 C         -1.3993365706       -3.8992017515        1.4699317956
 H         -2.3198675306       -4.4553666413        1.3753588451
 H         -1.3241845205       -3.3345181225        2.3882455862
 H         -0.2090189508       -5.4313847002        0.3872522136
 H          0.7804376394       -4.3084425414        1.4108172948
 H         -1.3248916510       -3.4378788690       -0.6981720639
