  62
        -98.94260315
 C          1.1615599168        1.5367901800        0.4963793255
 C          2.1185613203        1.2492102704       -0.5036475717
 C          3.1939406839        0.3125772251       -0.1325056263
 C          3.2012475549       -0.2388053905        1.0953515295
 C          4.1726207226       -1.2015017009        1.7454814882
 C          5.1419592528       -2.0219120899        0.8983801676
 C          4.4810990670       -3.0438315799       -0.0257594373
 H          5.2631463235       -3.5106766671       -0.6291678167
 H          4.0219385469       -3.8241317796        0.5867603062
 C          3.3994136160       -2.4982857937       -0.9560393066
 H          3.0427450934       -3.3276440074       -1.5739524823
 H          2.5410779531       -2.1584142871       -0.3706005182
 C          3.8458874341       -1.3783000046       -1.8949356593
 H          3.0300557486       -1.2032792617       -2.6017896065
 H          4.7195566729       -1.7034816190       -2.4635542074
 C          4.1680783779       -0.0325431450       -1.2209014055
 H          4.0747582732        0.7524754022       -1.9770216247
 H          5.1886223518       -0.0088847453       -0.8463534180
 H          5.7746708244       -2.5736722106        1.5991653270
 H          5.7965504883       -1.3670738055        0.3308636500
 H          4.7545607156       -0.6079700006        2.4596640010
 H          3.5544623951       -1.8829063563        2.3389823762
 O          2.2551841644        0.0720735010        2.0290908951
 C          1.2038757584        0.9251521612        1.7467351349
 O          0.3823884944        1.0565093963        2.6784882666
 O          2.0817529177        1.7469475412       -1.6594399172
 C         -0.0280733461        2.4221931299        0.1784386233
 C         -0.8685789530        1.7857968221       -0.9047262216
 C         -1.5480451806        2.5121042064       -1.8749711303
 C         -2.3201217072        1.8600090483       -2.8213991441
 C         -2.4510175729        0.4826444295       -2.8117538432
 C         -1.7785980939       -0.2518179640       -1.8418976161
 C         -0.9971729368        0.4044810224       -0.9060079248
 H         -0.4590116344       -0.1809022413       -0.1773665577
 N         -1.8703515990       -1.6505651841       -1.7820641023
 S         -1.8810306687       -2.4106766570       -0.2917936924
 O         -0.5637952157       -2.4043780374        0.2935899236
 O         -2.4402295621       -3.7174482999       -0.5673259635
 C         -3.0339674681       -1.4622516078        0.6854543001
 C         -4.3713981582       -1.5702077390        0.3523362213
 C         -5.3021499101       -0.8132024208        1.0431258432
 C         -4.8817187660        0.0433302676        2.0499053027
 C         -3.5384246069        0.1362114270        2.3763934050
 C         -2.6014530113       -0.6223897562        1.6906946060
 H         -1.5517351141       -0.5587804548        1.9330328041
 H         -3.2006431929        0.7977268631        3.1584306711
 H         -5.6034984072        0.6393546665        2.5856878913
 H         -6.3482933169       -0.8895178271        0.7944423000
 H         -4.6579747525       -2.2566828438       -0.4277216621
 H         -2.5277683475       -2.0668878481       -2.4246116566
 H         -3.0555044607       -0.0207758756       -3.5502666720
 H         -2.8345008005        2.4347918848       -3.5763937928
 H         -1.4659638594        3.5865257188       -1.8950761911
 H         -0.6366733050        2.4517938681        1.0953861335
 C          0.4170855311        3.8306981063       -0.1561448251
 C         -0.4457271974        5.0024941012        0.2015831637
 C          0.8191104136        4.7437914911        0.9618563593
 H          1.6597504285        5.4042897241        0.8118206057
 H          0.7435471984        4.3565974731        1.9679233134
 H         -0.4721327106        5.8470031383       -0.4704630252
 H         -1.3826621796        4.8023005923        0.6991187260
 H          0.9941719411        3.8766392030       -1.0720855889
