  62
        -98.94757646
 C         -2.5353405511       -0.2738806460        0.0090373210
 C         -2.2398733022       -1.2918430590       -0.9274545652
 C         -1.6122058257       -2.5038191794       -0.3872268927
 C         -1.3775981280       -2.5883345009        0.9349182792
 C         -0.7409588456       -3.7631141795        1.6199387703
 C          0.7776819466       -3.5933257252        1.7515129701
 C          1.4801139706       -3.2144533605        0.4474432399
 H          1.1986997780       -2.1947909642        0.1733571682
 H          2.5535112220       -3.1968728614        0.6530408551
 C          1.2031166229       -4.1545192149       -0.7335264310
 H          0.8354324593       -5.1144375609       -0.3678385109
 H          2.1447374720       -4.3413512568       -1.2538882251
 C          0.2277066583       -3.5938286158       -1.7707588701
 H          0.3124235461       -4.1955585277       -2.6799971187
 H          0.5208689207       -2.5706223676       -2.0232796114
 C         -1.2512596204       -3.5893432333       -1.3612993834
 H         -1.8465155792       -3.3947860994       -2.2584657783
 H         -1.5293068916       -4.5706684419       -0.9701980430
 H          0.9756962393       -2.8019632710        2.4782616322
 H          1.1948271905       -4.5269257656        2.1350367051
 H         -1.1731613438       -3.8476804662        2.6189380835
 H         -0.9684094991       -4.6674404720        1.0582442762
 O         -1.6910456355       -1.5971041124        1.8079164047
 C         -2.2264513914       -0.3985333903        1.3635595877
 O         -2.4043740440        0.4488193045        2.2604415011
 H         -0.4909118977        0.8582267515       -0.9751748872
 C         -0.7305244825        1.8192810499       -0.5439457151
 C         -2.0514940751        2.1230361314       -0.2422527754
 C         -2.3376087068        3.3746601841        0.2863463808
 C         -1.3157453012        4.2751417502        0.5380267650
 C          0.0039777149        3.9433445882        0.2919361591
 C          0.2971909345        2.6993696102       -0.2557447958
 N          1.6202612112        2.3040090587       -0.5290479689
 S          1.9793045652        0.6736673556       -0.2378999428
 O          1.6265736724       -0.0917837447       -1.4074748370
 O          1.3969355601        0.2552064206        1.0163242424
 C          3.7553841218        0.7553265021       -0.1010194162
 C          4.3372622040        0.8302533761        1.1501912965
 C          5.7167679049        0.9305340355        1.2428881905
 C          6.4858763103        0.9576011050        0.0892101290
 C          5.8874481421        0.8799631038       -1.1597776723
 C          4.5089899302        0.7778051211       -1.2592902208
 H          3.9983687539        0.7049061690       -2.2052920890
 H          6.4885221695        0.8977920511       -2.0544254932
 H          7.5588300434        1.0371043147        0.1640673963
 H          6.1845321194        0.9869111689        2.2125768658
 H          3.6982027882        0.7969332273        2.0182974168
 H          2.3042132942        2.9125999468       -0.0991849898
 H          0.7998502103        4.6354151957        0.5218668746
 H         -1.5500107052        5.2429220702        0.9550993939
 H         -3.3568333469        3.6395382295        0.5158249515
 C         -3.0839868536        1.0505142768       -0.4938072716
 H         -3.1951427623        0.9268295157       -1.5820283992
 C         -4.4390526056        1.3546639273        0.1067562369
 C         -5.4287178495        2.1887035335       -0.6493716180
 C         -5.6556808207        0.7162502033       -0.4912906943
 H         -6.4391822133        0.3804571072        0.1710680845
 H         -5.5073434339        0.0786627679       -1.3507253828
 H         -5.1347696841        2.5531524793       -1.6220611589
 H         -6.0619403892        2.8651814378       -0.0955473469
 H         -4.4021628215        1.4502323029        1.1859571446
 O         -2.4964394929       -1.1917987588       -2.1595935497
