  62
        -98.94080168
 C          2.6640040398        0.0750796593        0.3607668391
 C          2.7315593194        1.0909953791       -0.6269218211
 C          2.1932496097        2.4020334492       -0.2573463911
 C          1.6557985902        2.5756070894        0.9630400891
 C          1.0181000405        3.8368271295        1.4790724692
 C         -0.4407419397        4.0050575895        1.0312243199
 C         -0.6287493303        4.4272593993       -0.4270874801
 H         -1.6628175104        4.7621322393       -0.5306508597
 H          0.0148241096        5.2807048392       -0.6448986606
 C         -0.3723196309        3.3084270891       -1.4463485101
 H         -0.4223992407        2.3397223692       -0.9436121199
 H         -1.1643181512        3.3178925590       -2.1995634897
 C          0.9556278088        3.4173143089       -2.1960492807
 H          0.9452640985        4.3050929288       -2.8334994308
 H          1.0559115185        2.5390704788       -2.8389694206
 C          2.1941919692        3.4844409390       -1.2948833813
 H          3.0784718089        3.3386935989       -1.9208777817
 H          2.2601055495        4.4623845491       -0.8179957415
 H         -0.8938124894        4.7659403096        1.6716366800
 H         -0.9662133796        3.0618909695        1.2044953903
 H          1.6021818804        4.7032257794        1.1662638888
 H          1.0417407710        3.7745426697        2.5692658792
 O          1.6480082306        1.5940858495        1.9010189693
 C          2.1203286304        0.3153049495        1.6234982593
 O          2.0210841008       -0.4683005904        2.5868064194
 O          3.2282035589        0.9046976889       -1.7715951313
 C          3.0892510596       -1.3134963008       -0.0867227409
 C          1.9247408192       -1.9369568409       -0.8173747103
 C          2.0786489086       -2.5230743211       -2.0676551803
 C          0.9791677983       -3.0046089612       -2.7574695597
 C         -0.2929490615       -2.8828620710       -2.2290493691
 C         -0.4554075109       -2.3058599508       -0.9736693391
 C          0.6526924195       -1.8674871908       -0.2664576397
 H          0.5088617299       -1.4298800706        0.7105238403
 N         -1.7257893906       -2.1516037407       -0.3990447786
 S         -1.9974201001       -0.7717816505        0.5450068914
 O         -1.2588438903        0.3505009094        0.0174009108
 O         -1.7699299395       -1.1139602903        1.9267569713
 C         -3.7447806602       -0.5344099305        0.2755807621
 C         -4.6380334099       -1.3430642403        0.9532951527
 C         -5.9948152600       -1.1838159103        0.7206128233
 C         -6.4332909204       -0.2245687005       -0.1805045767
 C         -5.5252223807        0.5812806294       -0.8505244772
 C         -4.1663857806        0.4258459294       -0.6240135478
 H         -3.4223736308        1.0320769493       -1.1158745483
 H         -5.8685343410        1.3289408193       -1.5471312872
 H         -7.4897938305       -0.1022100504       -0.3592642862
 H         -6.7037317098       -1.8061077502        1.2424221437
 H         -4.2497785596       -2.0660767203        1.6517436926
 H         -2.4825686309       -2.3278926208       -1.0453143482
 H         -1.1543578717       -3.2252463911       -2.7819420886
 H          1.1114118178       -3.4546819213       -3.7296018897
 H          3.0628349984       -2.5739117512       -2.5096095207
 H          3.8895617892       -1.1481417310       -0.8266898513
 C          3.6588034600       -2.1949543307        1.0111811390
 C          2.9038822003       -3.3337933006        1.6210665895
 C          4.0534585998       -3.6093258807        0.7015845590
 H          4.9708367800       -3.9932176007        1.1208836386
 H          3.8229150794       -3.9845945509       -0.2840186708
 H          3.0255919008       -3.5012355104        2.6802479295
 H          1.9027871701       -3.5280963006        1.2680629400
 H          4.3086100204       -1.6397803706        1.6794856886
