  62
        -98.95045876
 C         -1.7699624042       -1.2753776979       -0.2410269599
 C         -2.8577289168       -0.6270254098        0.3870453542
 C         -3.2617506756        0.6593064382       -0.1938839486
 C         -2.5962721487        1.1384381198       -1.2608536695
 C         -2.8870396517        2.4470445947       -1.9362569786
 C         -2.0334029393        3.5816381483       -1.3548611417
 C         -2.0593790051        3.6577808589        0.1717014653
 H         -1.5462667544        2.7820738403        0.5771465828
 H         -1.4633198776        4.5265967142        0.4618586901
 C         -3.4627690766        3.7736814771        0.7828826726
 H         -4.1690971494        4.1161496208        0.0252802733
 H         -3.4364675605        4.5316291418        1.5688048047
 C         -3.9895235574        2.4884948480        1.4243027961
 H         -3.2310228525        2.0837740609        2.0999031978
 H         -4.8645755309        2.7439681842        2.0283631410
 C         -4.4114349042        1.3794684496        0.4522024411
 H         -4.9546134199        0.6225676852        1.0260041773
 H         -5.0862874211        1.7885745628       -0.3025773094
 H         -0.9958456547        3.4298525858       -1.6620023150
 H         -2.3823290021        4.5267969496       -1.7763654108
 H         -3.9442749094        2.6802049594       -1.8233354720
 H         -2.6584022452        2.3419285879       -2.9984860320
 O         -1.5566400651        0.4871141911       -1.8386385294
 C         -1.0965987942       -0.7131650988       -1.3244304070
 O         -0.1062215640       -1.1820847368       -1.9194962279
 O         -3.4634372871       -1.1041356667        1.3864444761
 C         -1.2640488430       -2.5921869274        0.3196165437
 C          0.1926271532       -2.4647872722        0.6917798524
 C          1.1377358257       -3.4533072794        0.4470045017
 C          2.4655462504       -3.2550560781        0.7858426841
 C          2.8832711323       -2.0631273875        1.3491849453
 C          1.9426889271       -1.0733836440        1.6082947946
 C          0.6087406363       -1.2932574718        1.3110259459
 H         -0.1087189694       -0.5141783946        1.5236174875
 N          2.3090203278        0.1789528541        2.1480997792
 S          2.0903185418        1.4987726553        1.1326051676
 O          2.5856939952        2.6358160921        1.8792717767
 O          0.7193681209        1.5655506329        0.7021569283
 C          3.1888924152        1.1679631965       -0.2335117542
 C          4.4543602083        1.7235568651       -0.2046831233
 C          5.3500518689        1.4097941701       -1.2133239347
 C          4.9704366259        0.5386659871       -2.2238249346
 C          3.6989403698       -0.0129046678       -2.2353280099
 C          2.7939744533        0.2998795822       -1.2314999680
 H          1.7979319275       -0.1162482262       -1.2291925318
 H          3.3946399370       -0.6904491747       -3.0169727085
 H          5.6678248484        0.2885458625       -3.0077506862
 H          6.3383503203        1.8405574287       -1.2068717279
 H          4.7020356648        2.3965847301        0.6004545055
 H          3.2516952265        0.2018573663        2.5140771322
 H          3.9236702183       -1.8957772988        1.5842323549
 H          3.1881428329       -4.0318944259        0.5880463874
 H          0.8356271634       -4.3776511000       -0.0176212618
 H         -1.8452918723       -2.7643112447        1.2382365023
 C         -1.5392228631       -3.7219632612       -0.6515204429
 C         -1.8046601022       -5.1088227464       -0.1484947485
 C         -2.9227957866       -4.2928626385       -0.7218235883
 H         -3.3205352256       -4.5640371427       -1.6881688581
 H         -3.6600268440       -3.8840390246       -0.0462251916
 H         -1.4372512817       -5.9452063145       -0.7238066714
 H         -1.7899092170       -5.2651742923        0.9195313727
 H         -0.9970537438       -3.6075744110       -1.5836291892
