  62
        -98.94284343
 C          0.7051600449        1.3980226253        0.5754940985
 C          1.1843938323        0.7434013430       -0.5814255108
 C          2.2257182270       -0.2805034796       -0.3707813856
 C          2.5593272173       -0.6305729276        0.8850469674
 C          3.5416239762       -1.6591205844        1.4077495722
 C          4.5617233843       -2.3043898917        0.4732609556
 C          5.6503062954       -1.3559130962       -0.0317320242
 H          6.3189547035       -1.1249727982        0.8014573643
 H          6.2355854814       -1.8783207680       -0.7913083356
 C          5.1614903343       -0.0276943001       -0.6052366709
 H          6.0414333589        0.5614738282       -0.8776199452
 H          4.6288549534        0.5309527047        0.1671483320
 C          4.2735503309       -0.1343388976       -1.8431206417
 H          4.1026141724        0.8794721535       -2.2150487000
 H          4.7963997201       -0.6924462926       -2.6221603444
 C          2.9004361309       -0.7869904474       -1.6128247267
 H          2.2466743083       -0.5122213617       -2.4452305547
 H          2.9844652827       -1.8689744210       -1.6021829672
 H          4.0588859106       -2.7883829384       -0.3586088015
 H          5.0545382402       -3.0939363537        1.0472027808
 H          4.0721894178       -1.1730568527        2.2330360265
 H          2.9332950999       -2.4486516468        1.8634575458
 O          1.9525383692       -0.0701465673        1.9754363978
 C          1.0706091222        0.9884163145        1.8551883136
 O          0.6852052596        1.4662031179        2.9426524610
 H         -1.7555386712        0.4981886629        1.1014757382
 C         -2.1780267990        1.0352120935        0.2638333229
 C         -1.5227422080        2.1567138143       -0.2301725307
 C         -2.0925961772        2.8477225699       -1.2915343933
 C         -3.2845632981        2.4162874763       -1.8471467879
 C         -3.9312697542        1.2968744827       -1.3577439471
 C         -3.3732976582        0.6044931441       -0.2881290302
 N         -4.0176772579       -0.5193738936        0.2490790763
 S         -3.1474937898       -1.7655558120        0.9234010961
 O         -4.0711789122       -2.8819827414        0.9179159770
 O         -2.6376919883       -1.3910609965        2.2192429085
 C         -1.8034819543       -2.1350413281       -0.1895462813
 C         -2.0181242576       -2.1101887384       -1.5529922763
 C         -0.9951027922       -2.5034691867       -2.3996685274
 C          0.2117269134       -2.9332470187       -1.8726330222
 C          0.4133806978       -2.9506065449       -0.5019667803
 C         -0.6002288308       -2.5412590816        0.3486748275
 H         -0.4800299635       -2.5247165139        1.4212073139
 H          1.3519079674       -3.2833784439       -0.0890488639
 H          0.9993267806       -3.2551411883       -2.5350979290
 H         -1.1441868761       -2.4784533564       -3.4669481625
 H         -2.9698802995       -1.7875314073       -1.9418931429
 H         -4.8281630925       -0.8437034429       -0.2569795747
 H         -4.8620303059        0.9625852682       -1.7896712330
 H         -3.7148868293        2.9589612604       -2.6748402079
 H         -1.6033338166        3.7225522901       -1.6860222154
 C         -0.2417630638        2.5765641196        0.4467870998
 H         -0.4925316512        2.8744393930        1.4760765700
 C          0.4606722663        3.7308192288       -0.2384742327
 C          0.0567076979        5.1429789532        0.0569531826
 C          1.3600171638        4.6127106126        0.5724788551
 H          2.2766557885        4.9671081169        0.1253419174
 H          1.4453478270        4.3965567086        1.6279843137
 H          0.0813008573        5.8661310520       -0.7441750487
 H         -0.7426732316        5.2961734074        0.7662054047
 H          0.7774942400        3.4868446609       -1.2457956967
 O          0.7814193625        1.0101600261       -1.7424851627
