  62
        -98.94478652
 C          1.8638859281        0.7258591859        0.4189548555
 C          2.4743419160        0.1483504219       -0.7208577251
 C          3.5420825190       -0.8222076385       -0.4455648817
 C          3.8449387787       -1.1443754536        0.8249806515
 C          4.8907936837       -2.1332909854        1.2636470788
 C          6.3104589858       -1.5534684260        1.3287794237
 C          6.9689413184       -1.2900152975       -0.0260008233
 H          8.0265185383       -1.0969904172        0.1646214862
 H          6.9080453716       -2.1896465110       -0.6392687929
 C          6.3807438703       -0.0989316299       -0.7952783712
 H          7.1926350864        0.5182011640       -1.1865401683
 H          5.8038248175        0.5274825935       -0.1110999801
 C          5.4939156674       -0.4843802430       -1.9793828340
 H          5.1019932156        0.4323707196       -2.4270193102
 H          6.0931494423       -0.9980061949       -2.7344663365
 C          4.3023004711       -1.3781904400       -1.6114661303
 H          3.6206842889       -1.4118193989       -2.4651452075
 H          4.6434164921       -2.3908948283       -1.3969085001
 H          6.2832389415       -0.6270510387        1.9070977124
 H          6.9288575935       -2.2685795386        1.8762144809
 H          4.8794475538       -2.9979564609        0.5992733231
 H          4.6070578775       -2.4618059462        2.2659740416
 O          3.1944982119       -0.6068076443        1.8919184718
 C          2.2039381886        0.3469105976        1.7168427244
 O          1.6982965692        0.7637191897        2.7798554056
 O          2.1473730967        0.4236253401       -1.9036180934
 C          0.7725117568        1.7676244422        0.2487639452
 C         -0.3991011856        1.1693996417       -0.4924596858
 C         -1.0210144456        1.7830540484       -1.5711716055
 C         -2.0897780097        1.1715484578       -2.2050690273
 C         -2.5679174701       -0.0512049427       -1.7731488537
 C         -1.9669431066       -0.6628056918       -0.6793310581
 C         -0.8973977813       -0.0491450375       -0.0464833305
 H         -0.4278276703       -0.5292933803        0.8037337958
 N         -2.4579451869       -1.8944790153       -0.2162223664
 S         -4.1152315243       -2.0953376996       -0.1115811273
 O         -4.3127267079       -3.0642116491        0.9439893390
 O         -4.6427503912       -2.4596644282       -1.4030795465
 C         -4.7593861582       -0.5024868442        0.3713550665
 C         -4.2891999254        0.0662231051        1.5385643029
 C         -4.7615052015        1.3132446689        1.9138960187
 C         -5.6925640149        1.9665734641        1.1206993375
 C         -6.1596008124        1.3795492162       -0.0447581306
 C         -5.6884440436        0.1335294797       -0.4265839320
 H         -6.0205024657       -0.3577213830       -1.3266674827
 H         -6.8850165674        1.8888321090       -0.6583226294
 H         -6.0552883441        2.9386919212        1.4149946674
 H         -4.3980904318        1.7704572539        2.8203054978
 H         -3.5674823258       -0.4667148330        2.1371952368
 H         -1.9892150101       -2.2437386957        0.6060856793
 H         -3.3860968498       -0.5480232217       -2.2687969978
 H         -2.5548917457        1.6533270362       -3.0512747461
 H         -0.6627120820        2.7354204089       -1.9248037055
 H          0.4351553762        2.0208827453        1.2645543182
 C          1.3340533343        3.0137421374       -0.4028602529
 C          0.7248352895        4.3528635012       -0.1192376318
 C          2.0672832472        4.0049455399        0.4483629748
 H          2.9433550703        4.4868902936        0.0408730494
 H          2.1391756550        3.7934116707        1.5056789944
 H          0.6807351300        5.0790960216       -0.9166857021
 H         -0.1161772086        4.3864829496        0.5564963803
 H          1.7226759658        2.8248976944       -1.3967513499
