  62
        -98.94248817
 C         -1.5024621137       -1.4007752794       -0.4263965066
 C         -1.4830300942       -0.0103025463       -0.6950016763
 C         -2.4398348788        0.8023094160        0.0698312955
 C         -3.2240066398        0.2290318114        0.9980525061
 C         -4.2167865199        0.9340866379        1.8821361589
 C         -5.5814983086        1.1789828517        1.2233337106
 C         -5.6011655699        2.2649036465        0.1466962230
 H         -6.6492014212        2.4824068002       -0.0686895772
 H         -5.1542518437        3.1763230615        0.5450318467
 C         -4.8990684075        1.8732786500       -1.1609194669
 H         -4.7731581956        0.7886508712       -1.1946372052
 H         -5.5290100819        2.1500636582       -2.0092259068
 C         -3.5374625438        2.5355143181       -1.3712541948
 H         -3.6662045883        3.6156520097       -1.4692850660
 H         -3.1136543395        2.1593452486       -2.3056192319
 C         -2.5268694989        2.2643936389       -0.2492672206
 H         -2.7904416878        2.8309401683        0.6438518031
 H         -1.5394349408        2.5912718824       -0.5845842959
 H         -6.2762532487        1.4695370234        2.0148181818
 H         -5.9368212044        0.2372728267        0.7985337432
 H         -4.3644010530        0.2927869138        2.7540340580
 H         -3.7952637146        1.8819895982        2.2190175210
 O         -3.1861301166       -1.1055856578        1.2589143936
 C         -2.3373800764       -1.9422459058        0.5544149052
 O         -2.4202177397       -3.1442431438        0.8826771661
 O         -0.7209196994        0.5476053067       -1.5249747767
 C         -0.5791610524       -2.4034777927       -1.1028476484
 C          0.6619173055       -2.5857582488       -0.2657211980
 C          1.1188148063       -3.8495796159        0.0851201481
 C          2.2318193502       -3.9891734233        0.8961512873
 C          2.8956370432       -2.8770057914        1.3796922790
 C          2.4481886508       -1.6053392693        1.0307413001
 C          1.3509364692       -1.4721726559        0.1947855535
 H          0.9991874456       -0.4893791075       -0.0650138550
 N          3.1145986424       -0.4703286115        1.5008325938
 S          2.4372708023        1.0534816596        1.6553575063
 O          3.1586754001        1.6399634715        2.7671879341
 O          1.0015462987        1.0016246930        1.7883404842
 C          2.9478547499        1.8798786874        0.1612786334
 C          2.1048171466        1.9938949931       -0.9246605107
 C          2.5711659084        2.6271989917       -2.0676170333
 C          3.8604221426        3.1325196353       -2.1080808851
 C          4.6951149160        3.0122469270       -1.0067131012
 C          4.2368752698        2.3806461748        0.1367429125
 H          4.8455826582        2.2780597522        1.0198399807
 H          5.6975681973        3.4079324526       -1.0365746042
 H          4.2147230683        3.6235511881       -3.0007819961
 H          1.9150084961        2.7152366477       -2.9188102053
 H          1.1027071235        1.5945577764       -0.8876535476
 H          3.8254103184       -0.6422310922        2.1949737296
 H          3.7501899532       -2.9870604110        2.0298359499
 H          2.5771274427       -4.9751465119        1.1683190785
 H          0.5834149899       -4.7220927727       -0.2595606982
 H         -1.1266266087       -3.3601490549       -1.0895881298
 C         -0.2782275188       -2.0745750766       -2.5575578211
 C          1.0434602461       -1.5587854938       -3.0325877257
 C          0.6350556128       -2.9644625574       -3.3482884870
 H          0.3640447861       -3.2123924779       -4.3633313874
 H          1.1342650476       -3.7601656015       -2.8159998688
 H          1.0352328988       -0.8231649884       -3.8218775437
 H          1.8236349662       -1.4035637017       -2.3038168779
 H         -1.1543471513       -1.6953701454       -3.0732708099
