  62
        -98.94289872
 C         -0.8673222843       -1.3802935242       -0.0047200439
 C         -1.6351225267       -0.7461941512        1.0056020190
 C         -2.6362936719        0.2285462750        0.5561342826
 C         -2.7179051790        0.5217678572       -0.7538179138
 C         -3.7173364354        1.4632589134       -1.3612542701
 C         -4.9838355224        0.7158756124       -1.8018356332
 C         -5.5567920355       -0.2125564631       -0.7305180017
 H         -6.4634258985       -0.6615469326       -1.1420293137
 H         -4.8499442023       -1.0256700902       -0.5495240705
 C         -5.8865847387        0.4779226165        0.6004627332
 H         -6.8666511295        0.1342314808        0.9377937754
 H         -5.9561355281        1.5559013818        0.4506206558
 C         -4.8980269016        0.1847509123        1.7310596364
 H         -4.7533338457       -0.8947979222        1.8195251752
 H         -5.3413290349        0.5332313491        2.6675041846
 C         -3.5210300038        0.8483650134        1.6010310436
 H         -3.6505383721        1.9173202758        1.4210926872
 H         -2.9953375455        0.7177646451        2.5509304221
 H         -5.7369109322        1.4516725437       -2.0900596838
 H         -4.7422884603        0.1150397555       -2.6818861112
 H         -3.9754913482        2.2333367944       -0.6364964398
 H         -3.2618482179        1.9349541935       -2.2340268597
 O         -1.9180963582       -0.0496456951       -1.6883117867
 C         -0.9970263311       -1.0404876254       -1.3528194178
 O         -0.3960856871       -1.5100075400       -2.3346771179
 O         -1.4999523687       -1.0036843969        2.2314641168
 C          0.1015130314       -2.4495340285        0.4651541082
 C          1.4541115993       -1.8766010298        0.8039481867
 C          2.1236260086       -2.2934395112        1.9498317435
 C          3.3813058751       -1.8031847057        2.2500880532
 C          3.9870627447       -0.8753827534        1.4226239045
 C          3.3208204370       -0.4411022132        0.2823199189
 C          2.0629922854       -0.9431303961       -0.0232161628
 H          1.5677177523       -0.6115994229       -0.9233925282
 N          3.9082663792        0.5069986183       -0.5690858032
 S          2.9527887222        1.7032650373       -1.2352587636
 O          2.2541158887        1.2148779005       -2.3953878093
 O          3.8732335745        2.7964838921       -1.4752258730
 C          1.7997729535        2.1745586549        0.0421455284
 C          0.4590981744        2.2773614909       -0.2624949092
 C         -0.4214744747        2.7033530299        0.7189728931
 C          0.0484187891        2.9964132273        1.9887031305
 C          1.3983353806        2.8814213036        2.2823596113
 C          2.2858935354        2.4769547393        1.2992752680
 H          3.3429122237        2.3995529425        1.4943981028
 H          1.7606882801        3.1097201590        3.2716012496
 H         -0.6432498947        3.3165445372        2.7515585529
 H         -1.4693647992        2.7970977292        0.4866941557
 H          0.1293251727        2.0171439140       -1.2567828148
 H          4.7949783028        0.8720507107       -0.2526337783
 H          4.9678282476       -0.4884894559        1.6527706084
 H          3.8920871960       -2.1396799974        3.1390058633
 H          1.6453570428       -3.0006496187        2.6110332626
 H         -0.3322122200       -2.8255675517        1.4063443284
 C          0.2011840936       -3.6339768097       -0.4869678606
 C          1.3690253282       -3.8674107811       -1.3923342808
 C          1.1538417681       -4.7591213568       -0.2085550448
 H          0.8185195776       -5.7710544394       -0.3781271376
 H          1.8293144901       -4.6490151912        0.6258786093
 H          1.1661619345       -4.2469571289       -2.3821195930
 H          2.1825800930       -3.1590888852       -1.3648562370
 H         -0.7708758466       -3.9091453865       -0.8845947348
