  62
        -98.93834280
 C         -2.5094206197       -0.2104510665        0.4708510344
 C         -2.3085948118        0.5189996731       -0.7223779966
 C         -2.0401003393        1.9641106588       -0.5845406841
 C         -1.9950652892        2.5009125979        0.6486700553
 C         -1.7208251866        3.9287305421        1.0444042635
 C         -0.2360871278        4.3041063779        0.9409752690
 C          0.4428045421        3.8808871627       -0.3583035424
 H          1.4978447873        4.1581230762       -0.2808423780
 H          0.4098924710        2.7925495769       -0.4410819636
 C         -0.1173207215        4.5245882943       -1.6251492774
 H         -0.0664554494        5.6112822784       -1.5252677978
 H          0.5400654721        4.2348151553       -2.4485555503
 C         -1.5479049651        4.1351464272       -2.0081497813
 H         -1.6937408963        4.4224083589       -3.0535162144
 H         -2.2808014889        4.6923445942       -1.4304266951
 C         -1.8415367913        2.6415864939       -1.9184811366
 H         -2.7510748171        2.4255558242       -2.4917912166
 H         -1.0438641208        2.0844831522       -2.4235674785
 H         -0.1467325807        5.3849780039        1.0688736801
 H          0.2953634781        3.8186011749        1.7637773235
 H         -2.3297850684        4.6056561020        0.4523772215
 H         -2.0315367037        4.0262194035        2.0874256947
 O         -2.1913128012        1.7534369128        1.7752841793
 C         -2.4280021757        0.3949644891        1.7216841019
 O         -2.5588042316       -0.1543528756        2.8375169195
 H         -0.1630649016       -1.0054472854        0.5445601875
 C         -0.2965271906       -1.8692328384       -0.0905220647
 C         -1.5723356209       -2.3826696803       -0.2833368164
 C         -1.7182426129       -3.5086747102       -1.0833570873
 C         -0.6116488165       -4.0897902273       -1.6795051522
 C          0.6527394148       -3.5598832641       -1.5039571648
 C          0.8081115482       -2.4273085123       -0.7099402005
 N          2.0685892520       -1.8255273035       -0.5668280401
 S          2.3334657837       -0.5970033721        0.5463967549
 O          2.0901043561       -1.0648906029        1.8952928246
 O          1.6097331302        0.5762762959        0.1288961764
 C          4.0826374107       -0.3527293287        0.3032194989
 C          4.5060889945        0.5107830167       -0.6888578754
 C          5.8661542897        0.6750618168       -0.8990490600
 C          6.7752803728       -0.0246599831       -0.1196266775
 C          6.3358369622       -0.8864769636        0.8740787649
 C          4.9770532385       -1.0546211485        1.0893804276
 H          4.5891979913       -1.7034310476        1.8582785327
 H          7.0446134800       -1.4263593821        1.4810167733
 H          7.8330519922        0.1049402706       -0.2854241417
 H          6.2110688450        1.3470878304       -1.6681753696
 H          3.7615264699        1.0372407841       -1.2632843716
 H          2.8482059674       -2.4604392851       -0.6558993750
 H          1.5109042024       -4.0065370881       -1.9814023922
 H         -0.7379470427       -4.9668736281       -2.2960070858
 H         -2.6978564645       -3.9296757029       -1.2411083288
 C         -2.7311871525       -1.7095835156        0.4145777597
 H         -2.7433563185       -2.0534955355        1.4607126602
 C         -4.0714489367       -2.0245203074       -0.2191124925
 C         -4.8646500329       -3.2138184465        0.2301322403
 C         -5.3151087447       -1.8319775862        0.5939629863
 H         -6.1910605462       -1.4270848822        0.1100492956
 H         -5.1889639522       -1.5026455716        1.6155459328
 H         -5.4370787464       -3.7591973528       -0.5050141830
 H         -4.4454317616       -3.8289837097        1.0121675875
 H         -4.1078998364       -1.7458466237       -1.2659577738
 O         -2.3511518872       -0.0082661578       -1.8659711398
