  62
        -98.93828629
 C         -2.1850356678        1.0154126240       -0.5633643692
 C         -2.3716696818        0.2167105907        0.5896426593
 C         -3.1417392370       -1.0263740844        0.4028029556
 C         -3.5755117258       -1.3584520989       -0.8248127073
 C         -4.3358382190       -2.5891098584       -1.2525469638
 C         -5.4796003928       -3.0665702522       -0.3471866502
 C         -6.2396428075       -1.9500978240        0.3836396644
 H         -5.9619319057       -0.9777738041       -0.0266157888
 H         -7.3100504944       -2.0815549321        0.2153036029
 C         -5.9981875638       -1.9539412215        1.8950760497
 H         -6.0318373742       -2.9854759888        2.2522796701
 H         -6.8127261764       -1.4125580760        2.3820038721
 C         -4.6902853942       -1.3091682892        2.3525609469
 H         -4.7392500045       -0.2269529565        2.2052613608
 H         -4.5867364075       -1.4819407082        3.4263940448
 C         -3.4208391827       -1.8164446669        1.6487292739
 H         -2.5706588776       -1.6380015652        2.3132120118
 H         -3.4806748487       -2.8829820809        1.4450823460
 H         -5.0919711298       -3.7714865793        0.3869641957
 H         -6.1711813534       -3.6232545053       -0.9818728238
 H         -4.7294488533       -2.3489029066       -2.2432753560
 H         -3.6170385508       -3.4040264251       -1.3812838439
 O         -3.3274398445       -0.5816477430       -1.9185516249
 C         -2.6347629478        0.6125785540       -1.8187478267
 O         -2.4793483828        1.2094597674       -2.9046913547
 H          0.2384699521        0.6314190534       -1.6450608781
 C          0.7186245250        1.1018372498       -0.7945695641
 C          0.0046403603        2.0343129034       -0.0509627101
 C          0.6283979604        2.6314002376        1.0354056904
 C          1.9266016858        2.2866256979        1.3721763490
 C          2.6305439940        1.3540834506        0.6331613487
 C          2.0180984015        0.7564294144       -0.4611918532
 N          2.7309196591       -0.1837351295       -1.2304998964
 S          3.3820697454       -1.5046073104       -0.4184708618
 O          3.4992568413       -2.5429965569       -1.4198986532
 O          2.6164280947       -1.8339072185        0.7617733814
 C          5.0124040405       -0.9541708376        0.0386502697
 C          5.4043114711       -0.9850363345        1.3625466893
 C          6.6807980593       -0.5566589604        1.6930036627
 C          7.5373625451       -0.1083780049        0.6991647779
 C          7.1287044760       -0.0857446151       -0.6261909390
 C          5.8546254511       -0.5135169234       -0.9635513277
 H          5.4984350773       -0.5158036816       -1.9801602934
 H          7.7974770952        0.2637252917       -1.3961835867
 H          8.5293970861        0.2256111730        0.9591610495
 H          6.9999712438       -0.5735943514        2.7226832866
 H          4.7006804768       -1.3351758422        2.1010362206
 H          2.2214055892       -0.4983003579       -2.0443136556
 H          3.6396731770        1.0815278320        0.8957193770
 H          2.3968114985        2.7518236805        2.2250070308
 H          0.0950553468        3.3565849779        1.6272096626
 C         -1.4166703396        2.3228274954       -0.4713018526
 H         -1.3907691890        2.7300126785       -1.4926712501
 C         -2.1366074048        3.3042839087        0.4281632390
 C         -1.9428655479        4.7775574522        0.2365453600
 C         -3.2417038534        4.1362761276       -0.1471306931
 H         -4.1131394765        4.3274539353        0.4609638796
 H         -3.4625766296        4.0109771682       -1.1974946354
 H         -1.2821876924        5.0952475825       -0.5557629560
 H         -1.9250288192        5.4134745427        1.1085429416
 H         -2.2669417623        2.9290764022        1.4363310515
 O         -1.9164192190        0.5187713741        1.7225427813
