  62
        -98.94268376
 C         -1.2313713383       -1.5625087126        0.5567341942
 C         -2.1845421714       -1.2620364044       -0.4434955870
 C         -3.1809192079       -0.2286047931       -0.1072843882
 C         -3.1196045588        0.3748275538        1.0923792713
 C         -3.9583535129        1.5206960078        1.5857920848
 C         -3.2562954806        2.8580751514        1.2889648188
 C         -3.5818513061        3.4646188863       -0.0744878256
 H         -4.6197250141        3.8058221145       -0.0816224337
 H         -2.9425966103        4.3421695576       -0.1967670695
 C         -3.3586059724        2.5301457818       -1.2661410976
 H         -3.2475006690        3.1482119815       -2.1596898401
 H         -2.4165394109        1.9933737345       -1.1314378645
 C         -4.5148266179        1.5425524534       -1.4843756160
 H         -5.3704420848        1.8629720295       -0.8896978851
 H         -4.8304009809        1.5840829269       -2.5290049840
 C         -4.1941126015        0.0721960818       -1.1777131176
 H         -3.7918115967       -0.4051937236       -2.0769224008
 H         -5.1248560456       -0.4508962605       -0.9332252069
 H         -3.5344676400        3.5814785463        2.0585796083
 H         -2.1757898118        2.7010293254        1.3598578845
 H         -4.9520696975        1.4920405748        1.1485799863
 H         -4.0446191819        1.4038030748        2.6681179021
 O         -2.1927742987        0.0454271816        2.0331827105
 C         -1.2134745568       -0.8961948289        1.7805849876
 O         -0.3928599854       -1.0508065572        2.7096579197
 O         -2.1946958972       -1.8140517421       -1.5755524465
 C         -0.0956319372       -2.5236512835        0.2603653557
 C          0.7708455098       -1.9655361534       -0.8463126924
 C          1.4351255819       -2.7581905112       -1.7743035252
 C          2.2275010117       -2.1751631248       -2.7487975734
 C          2.3888888683       -0.8024588978       -2.8140895065
 C          1.7308073145       -0.0016024832       -1.8876665016
 C          0.9372817878       -0.5903251240       -0.9178612324
 H          0.4132590617        0.0446330071       -0.2219776687
 N          1.8403456988        1.3958356836       -1.9137591543
 S          1.7870130559        2.2779403179       -0.4952711307
 O          0.4563912273        2.2808749432        0.0582411175
 O          2.3163109544        3.5723829138       -0.8692125281
 C          2.9417441980        1.4561939863        0.5881305354
 C          2.5085871744        0.6855180801        1.6468816014
 C          3.4498888377        0.0248998763        2.4221955738
 C          4.7988297680        0.1457546159        2.1302014383
 C          5.2197114387        0.9318235519        1.0675192177
 C          4.2846056702        1.5901498679        0.2874113862
 H          4.5705384137        2.2205750457       -0.5388367913
 H          6.2699830138        1.0302383564        0.8454516291
 H          5.5245715412       -0.3728633358        2.7364913864
 H          3.1106711784       -0.5826933227        3.2462004186
 H          1.4548459898        0.5992069676        1.8627429124
 H          2.5097301962        1.7675345731       -2.5705166035
 H          3.0044104888       -0.3535527605       -3.5782037220
 H          2.7314612355       -2.8013371093       -3.4692124819
 H          1.3248124281       -3.8298153815       -1.7401085054
 H          0.5164107721       -2.5596993818        1.1748141590
 C         -0.6162091520       -3.9156787307       -0.0313912258
 C          0.1827023019       -5.1209643098        0.3618862427
 C         -1.0657502982       -4.7721179007        1.1131025755
 H         -1.9410165284       -5.3903311143        0.9820627208
 H         -0.9681549694       -4.3601838115        2.1073643408
 H          0.1633929049       -5.9851986868       -0.2848735359
 H          1.1291554047       -4.9569676984        0.8547480908
 H         -1.1956057407       -3.9585374915       -0.9459749011
