  62
        -98.94134228
 C         -2.4728230447       -1.3137216189        0.0405406920
 C         -3.1002606821       -0.5474805099        1.0580106647
 C         -3.8553275151        0.6295197121        0.6184568638
 C         -3.9260194949        0.9219025680       -0.6923616632
 C         -4.6738314081        2.0742647043       -1.3058018196
 C         -3.8952601006        3.3969976229       -1.2991726914
 C         -3.7646293126        4.0679898571        0.0687488546
 H         -3.3993261479        5.0818521504       -0.1062647041
 H         -4.7503564878        4.1506613292        0.5277026822
 C         -2.8030573263        3.3591807387        1.0331429814
 H         -2.1525314243        2.6827968143        0.4722898844
 H         -2.1519743873        4.0978378950        1.5064912351
 C         -3.4886957418        2.5762033163        2.1532386033
 H         -4.0239203852        3.2677162579        2.8077658785
 H         -2.7144140240        2.0810285238        2.7447975653
 C         -4.4727300723        1.5044304519        1.6670287150
 H         -5.3800628286        1.9720583810        1.2853866868
 H         -4.7342399405        0.8693072104        2.5168367059
 H         -4.4159932788        4.0847918471       -1.9695737029
 H         -2.8992026921        3.2200284551       -1.7129024109
 H         -4.8743613901        1.7979188392       -2.3432248256
 H         -5.6255543918        2.2087173256       -0.7909287436
 O         -3.3198439532        0.1607617454       -1.6398216627
 C         -2.5593612645       -0.9537875885       -1.3041650318
 O         -2.0409233364       -1.5121377883       -2.2909277747
 O         -3.0401101930       -0.8460589145        2.2802043649
 C         -1.6757465590       -2.5240328654        0.4993015938
 C         -0.2304989731       -2.1416044914        0.6902180961
 C          0.4062876882       -2.3055798533        1.9140118126
 C          1.7201338793       -1.9028567476        2.0837721898
 C          2.4227259033       -1.3279435663        1.0397829168
 C          1.7931923874       -1.1572422801       -0.1863498467
 C          0.4804623672       -1.5664856289       -0.3552661990
 H         -0.0057450598       -1.4255049234       -1.3100867023
 N          2.4976641721       -0.5521392340       -1.2527975142
 S          2.8431993990        1.0809737830       -1.0166815994
 O          1.8433596325        1.7136358729       -0.1848520144
 O          3.0233673039        1.6358082340       -2.3405873971
 C          4.4117110798        1.0529925297       -0.1758530436
 C          5.4941168644        0.5082167291       -0.8390881602
 C          6.7213532711        0.4697296202       -0.1968231728
 C          6.8446985012        0.9756489066        1.0889328464
 C          5.7491097714        1.5228808833        1.7391967551
 C          4.5179483768        1.5631857478        1.1029748436
 H          3.6362507634        1.9722972713        1.5699017358
 H          5.8468695070        1.9162840861        2.7382295922
 H          7.8006796048        0.9436519550        1.5872964413
 H          7.5757538977        0.0456730792       -0.6991863430
 H          5.3535966187        0.1318898563       -1.8385676549
 H          2.0137345612       -0.6543697978       -2.1352687423
 H          3.4449445485       -1.0103661418        1.1658311885
 H          2.2011201040       -2.0345152517        3.0408046234
 H         -0.1425729058       -2.7331414788        2.7402316252
 H         -2.0878470080       -2.7644949385        1.4919367326
 C         -1.8724189110       -3.7473916821       -0.3855265648
 C         -0.7796630395       -4.3790987858       -1.1905112011
 C         -1.2967578548       -5.0679833604        0.0341486658
 H         -1.8980149671       -5.9566904395       -0.0819996335
 H         -0.6607823218       -5.0730576851        0.9066114451
 H         -1.0411200566       -4.7722754384       -2.1612307249
 H          0.2063111249       -3.9436350368       -1.1511801620
 H         -2.8623502326       -3.7685310377       -0.8298192287
