  62
        -98.94298756
 C         -1.4939988584       -1.3484207784       -0.3364319120
 C         -1.5779094135        0.0357007649       -0.6304975225
 C         -2.6621611285        0.7693729685        0.0444887806
 C         -3.4601637315        0.1286391145        0.9156675009
 C         -4.6211674691        0.7479515885        1.6375711768
 C         -5.9229484081        0.5917637366        0.8388791549
 C         -5.8020927639        1.0064347331       -0.6274628658
 H         -5.1225676963        0.3189365553       -1.1361403633
 H         -6.7869865376        0.8819702314       -1.0826129357
 C         -5.3179580313        2.4472955947       -0.8416638147
 H         -5.9401522308        2.9160127877       -1.6070173275
 H         -5.4462046312        3.0215170125        0.0766164000
 C         -3.8671828991        2.5655192589       -1.3125452058
 H         -3.7100824458        1.9195750880       -2.1799562542
 H         -3.6977544447        3.5960031143       -1.6359087230
 C         -2.7973892011        2.2338581801       -0.2644088833
 H         -2.9839969634        2.8022257873        0.6494619999
 H         -1.8274134308        2.5471653881       -0.6620922633
 H         -6.2257963413       -0.4572855630        0.8744398185
 H         -6.6988310900        1.1861808039        1.3248422036
 H         -4.7325506913        0.2463058023        2.6005420447
 H         -4.4116390332        1.8016958299        1.8125408018
 O         -3.3252647907       -1.1912890748        1.2054102851
 C         -2.3483159423       -1.9536579666        0.5887950790
 O         -2.3426975190       -3.1529331299        0.9357346279
 O         -0.8074898920        0.6460717060       -1.4143856028
 C         -0.4450475008       -2.2732847070       -0.9322226168
 C          0.7779585971       -2.3415395029       -0.0503163912
 C          1.4489456961       -3.5432845672        0.1466606250
 C          2.5717173198       -3.5951885810        0.9534486366
 C          3.0399308168       -2.4569998911        1.5838603424
 C          2.3642726793       -1.2525583312        1.4102235494
 C          1.2495746215       -1.2025362540        0.5855937566
 H          0.7270939469       -0.2684665328        0.4670484742
 N          2.7853310186       -0.1067179936        2.0883980949
 S          2.4199601088        1.4595749215        1.6515936175
 O          3.1966245391        2.2535806580        2.5810537422
 O          0.9957186759        1.6746438112        1.6730392795
 C          3.1000983601        1.6696699092        0.0165410750
 C          4.4734565515        1.8086850852       -0.0709740998
 C          5.0579571542        1.9648572206       -1.3158333484
 C          4.2614368835        1.9830424649       -2.4515781886
 C          2.8872289312        1.8458503631       -2.3458699534
 C          2.2936101250        1.6828035196       -1.1021256627
 H          1.2255578885        1.5603242334       -1.0081828307
 H          2.2618748150        1.8609505187       -3.2239642592
 H          4.7133265321        2.1069351048       -3.4231070128
 H          6.1273962774        2.0739402366       -1.3978437391
 H          5.0525212870        1.8121525819        0.8381184069
 H          3.6551283528       -0.1823618298        2.5917825888
 H          3.9082278249       -2.4997561849        2.2230915687
 H          3.0849456184       -4.5335058568        1.0989882548
 H          1.0726301796       -4.4431840301       -0.3170953981
 H         -0.9041964332       -3.2755131686       -0.9261720322
 C         -0.1028790362       -1.9400760364       -2.3783974430
 C          1.1970992240       -1.3259302891       -2.7917645258
 C          0.9089491391       -2.7562650559       -3.1273946298
 H          0.6998274847       -3.0157348618       -4.1541626191
 H          1.4460575998       -3.5151257436       -2.5800568211
 H          1.1727782581       -0.5903330008       -3.5801537329
 H          1.9253643468       -1.1145449311       -2.0238446171
 H         -0.9800807843       -1.6276834740       -2.9353455814
