  62
        -98.93841772
 C         -2.3469820089       -1.2455338724        0.1943986234
 C         -2.3860092816        0.0054088974       -0.4620511498
 C         -3.3836481606        0.9823917195        0.0234306749
 C         -4.1702245841        0.6492938321        1.0632667207
 C         -5.2702951257        1.4568691318        1.6988468075
 C         -6.5555845108        1.4745944152        0.8550839719
 C         -6.3396907631        1.6817962540       -0.6417365093
 H         -5.6799893522        0.8990306432       -1.0204629138
 H         -7.3064396150        1.5590445412       -1.1370211597
 C         -5.7839335007        3.0481424286       -1.0358996472
 H         -5.7582537624        3.0860490706       -2.1279753143
 H         -6.4695268459        3.8263307712       -0.6931492520
 C         -4.3820959739        3.3754416546       -0.5171443649
 H         -4.4071846120        3.6549545105        0.5326395820
 H         -4.0298890989        4.2558464593       -1.0629711041
 C         -3.3442370810        2.2808235423       -0.7463707267
 H         -2.3471862919        2.7010967338       -0.5622991616
 H         -3.3463604591        2.0030481229       -1.8067513292
 H         -7.2115558078        2.2558723676        1.2423521914
 H         -7.0589535205        0.5139942720        0.9880385043
 H         -5.4909395740        0.9839334563        2.6583109467
 H         -4.9228791481        2.4659091213        1.9000410492
 O         -4.0818014992       -0.5635567308        1.6801919256
 C         -3.1812878972       -1.5270330069        1.2785410399
 O         -3.2163059945       -2.5780815481        1.9491598456
 O         -1.6376230407        0.3133308017       -1.4285965815
 C         -1.3582662282       -2.3305031120       -0.2051364449
 C          0.0238313514       -1.8711262506        0.1904216863
 C          0.4542656098       -2.0630485264        1.5004622229
 C          1.6869422913       -1.5939115158        1.9132554566
 C          2.5118995124       -0.9147580193        1.0328889595
 C          2.0828230563       -0.7013558856       -0.2694517392
 C          0.8538365545       -1.1943551144       -0.6890171240
 H          0.5265413358       -1.0091647076       -1.6996049987
 N          2.9057261686       -0.0002087108       -1.1677865988
 S          3.6046633165        1.4345133338       -0.6471751906
 O          2.8076290803        2.0874136685        0.3658518661
 O          3.8593245304        2.1913833499       -1.8537706686
 C          5.1634078962        0.9131663915        0.0412492076
 C          5.5259818320        1.3168818056        1.3112596305
 C          6.7489192007        0.9089421172        1.8212307905
 C          7.5837810169        0.1095429132        1.0557582198
 C          7.2063636538       -0.2849780480       -0.2192871662
 C          5.9858469180        0.1202499253       -0.7351593363
 H          5.6566120334       -0.1625316495       -1.7209639664
 H          7.8582225819       -0.9066492136       -0.8116649514
 H          8.5340589093       -0.2076182079        1.4553562675
 H          7.0438388995        1.2154879586        2.8120008672
 H          4.8415174669        1.9330042729        1.8727188832
 H          2.4865491675        0.1217243655       -2.0788913850
 H          3.4691078038       -0.5356364990        1.3514513062
 H          2.0092465231       -1.7542430500        2.9309280755
 H         -0.2005345367       -2.5721043422        2.1942708214
 H         -1.6126426428       -3.2048073012        0.4084764073
 C         -1.4857627762       -2.7092451331       -1.6657814883
 C         -0.8506280365       -3.9769491475       -2.1499333876
 C         -2.3421419129       -3.8783370518       -2.0447728312
 H         -2.9218444121       -3.8181352554       -2.9537496336
 H         -2.8360492777       -4.4150176569       -1.2478521470
 H         -0.4042576798       -3.9882389590       -3.1324761843
 H         -0.3303351791       -4.5811526735       -1.4223274575
 H         -1.4933155908       -1.8572998424       -2.3337363378
