  62
        -98.94384616
 C          1.2969834919        1.7080428961        0.2748286262
 C          1.8427802505        1.1568016084       -0.9103834805
 C          2.8944286188        0.1478189807       -0.7199432045
 C          3.2270327298       -0.2575981817        0.5182491511
 C          4.2962989332       -1.2574244645        0.8673085648
 C          3.8539450063       -2.7233215323        0.7661909756
 C          3.6586156417       -3.2523527492       -0.6551105527
 H          4.5538085090       -3.0498746937       -1.2440050468
 H          3.5576793352       -4.3370719027       -0.5831968961
 C          2.4266223442       -2.6882848232       -1.3771723521
 H          1.7515658336       -2.2338849314       -0.6484000571
 H          1.8790415029       -3.5023784582       -1.8574127825
 C          2.7481624117       -1.6570226173       -2.4579491251
 H          1.8075255347       -1.3013204451       -2.8867452018
 H          3.3233948628       -2.1275545174       -3.2585763777
 C          3.5274955628       -0.4390127945       -1.9462493912
 H          4.5621748988       -0.7145401910       -1.7431037266
 H          3.5163512032        0.3267150245       -2.7260204581
 H          4.6234936233       -3.3279272582        1.2516728395
 H          2.9272225710       -2.8451432138        1.3284749268
 H          5.1670677221       -1.0945479328        0.2310597427
 H          4.5818635965       -1.0558608327        1.9020076852
 O          2.6239038265        0.2381652893        1.6302535185
 C          1.6662132843        1.2326944073        1.5375015273
 O          1.2189665909        1.6142849107        2.6368268065
 O          1.4886937141        1.4692575507       -2.0790537258
 C          0.2654869523        2.8227749766        0.2835951635
 C         -1.1466594248        2.3048175142        0.1420132141
 C         -2.1927907003        2.9121151380        0.8277636057
 C         -3.4881015756        2.4404040785        0.7069425788
 C         -3.7653848690        1.3402437895       -0.0855133822
 C         -2.7249435373        0.7191165938       -0.7630465658
 C         -1.4309881462        1.2107039325       -0.6608772648
 H         -0.6352121159        0.7301291993       -1.2107150190
 N         -2.9920087456       -0.4473254771       -1.5169261835
 S         -3.3693571728       -1.8018191917       -0.6042134492
 O         -3.4156008968       -2.9054848561       -1.5348381476
 O         -4.5776958299       -1.5335442957        0.1319981698
 C         -2.0054708427       -2.0218437082        0.5281235273
 C         -1.8553267208       -1.1406251446        1.5818069030
 C         -0.7630264950       -1.2814752219        2.4230076410
 C          0.1410558175       -2.3111743440        2.2140154279
 C         -0.0329457189       -3.1993230071        1.1634328418
 C         -1.1071205824       -3.0448925708        0.3015290998
 H         -1.2715309640       -3.7041727031       -0.5355927328
 H          0.6640588193       -4.0079363359        1.0097017266
 H          0.9846736365       -2.4140287490        2.8793626936
 H         -0.6116155336       -0.5789065435        3.2274400237
 H         -2.5863384032       -0.3644882548        1.7378060363
 H         -2.2439110954       -0.6812001825       -2.1556354516
 H         -4.7606526142        0.9348212308       -0.1644858390
 H         -4.2891660193        2.9257937649        1.2431141606
 H         -1.9844259717        3.7536649623        1.4709375627
 H          0.3434399071        3.2936399440        1.2734309674
 C          0.5289998851        3.8838355269       -0.7698749330
 C          0.1005168412        5.2973089687       -0.5233772953
 C          1.5564031971        4.9416053008       -0.5069360833
 H          2.1817203850        5.2658628252       -1.3249804668
 H          2.0644164764        4.9175537846        0.4464812726
 H         -0.2802387233        5.8702219007       -1.3548325818
 H         -0.3712938425        5.5263906327        0.4197858368
 H          0.4563810326        3.5042244305       -1.7808151362
