  62
        -98.94175437
 C         -1.5579683581       -1.4913982785        0.1633575492
 C         -2.4966690274       -0.8859773118        1.0377440485
 C         -3.3018492928        0.2055600059        0.4744930462
 C         -3.0859688185        0.5912713179       -0.7959608230
 C         -3.8517538241        1.6695070958       -1.5059665954
 C         -3.1766875261        3.0396906892       -1.3646375288
 C         -2.7734528336        3.3829026757        0.0689633230
 H         -1.9951354879        2.6900228698        0.3970890653
 H         -2.3308412789        4.3808754457        0.0546389987
 C         -3.9336084587        3.3598681517        1.0741907067
 H         -3.8602185714        4.2427398203        1.7126882871
 H         -4.8849834487        3.4227703404        0.5444863225
 C         -3.9519535205        2.1433030231        2.0016814081
 H         -2.9679383028        2.0167985248        2.4603563806
 H         -4.6638823587        2.3421667862        2.8073142725
 C         -4.3578796460        0.8131915040        1.3540962387
 H         -4.5316047908        0.0912706482        2.1576542268
 H         -5.2922887646        0.9425648399        0.8034845434
 H         -2.2805946037        3.0450352705       -1.9877523043
 H         -3.8600587831        3.8010806699       -1.7450842926
 H         -3.9056150708        1.4084571877       -2.5645045830
 H         -4.8621122115        1.7074417410       -1.1025082961
 O         -2.1154408770        0.0509182047       -1.5734028253
 C         -1.3218742264       -0.9992543741       -1.1213387712
 O         -0.4711818775       -1.3733716236       -1.9476156274
 O         -2.6618474123       -1.2520332354        2.2324283414
 C         -0.7807809981       -2.6841727079        0.6912382275
 C          0.6854424617       -2.5540485853        0.3701164072
 C          1.3475179890       -3.3849931146       -0.5238732621
 C          2.6917022388       -3.1963670372       -0.7931776503
 C          3.4059482428       -2.1879158704       -0.1729102664
 C          2.7524474883       -1.3483519726        0.7204733995
 C          1.4043588056       -1.5373894756        0.9877131418
 H          0.8949599329       -0.8789911006        1.6811640069
 N          3.4789515088       -0.3250193641        1.3659627620
 S          4.1538007926        0.8996488759        0.4507020963
 O          4.9047699960        0.3199611569       -0.6322018463
 O          4.8979958460        1.7143387743        1.3837746510
 C          2.7863131282        1.8522704600       -0.1907024244
 C          1.9115396111        1.2679608167       -1.0857211463
 C          0.8488895495        2.0176376311       -1.5660798167
 C          0.6855218039        3.3312530768       -1.1540953420
 C          1.5697419954        3.9016709594       -0.2513872148
 C          2.6272727956        3.1549071788        0.2406632509
 H          3.3390916328        3.5545509278        0.9448197976
 H          1.4366792230        4.9224534545        0.0688033115
 H         -0.1354081831        3.9152145350       -1.5390578239
 H          0.1539653284        1.5581177665       -2.2521911702
 H          2.0523024857        0.2451668119       -1.3989693432
 H          2.9889594260        0.0819723642        2.1503682106
 H          4.4493681905       -2.0222224624       -0.3844354476
 H          3.1918163764       -3.8448711502       -1.4965257391
 H          0.8037545178       -4.1646187252       -1.0311221698
 H         -0.8947732904       -2.6223863404        1.7863257478
 C         -1.3624837901       -4.0273486723        0.2729693442
 C         -2.8382582438       -4.2010240817        0.0786500088
 C         -1.9139083875       -4.2775108580       -1.0974927758
 H         -1.7410554645       -5.2428036369       -1.5506190439
 H         -1.9043000755       -3.4591795578       -1.8005472137
 H         -3.2989751863       -5.1107164704        0.4332907334
 H         -3.4638987120       -3.3263924105        0.1821066293
 H         -0.8406247970       -4.8544161516        0.7448197616
