  62
        -98.93769666
 C          1.8161974468        0.9487214291       -0.1219282888
 C          2.4063979759        0.2481048442        0.9557147938
 C          3.5125142421       -0.6580727832        0.6133488575
 C          3.8701788053       -0.7950104171       -0.6767426640
 C          5.0239683128       -1.6167967063       -1.1772470531
 C          6.3500249451       -0.8708896531       -0.9252748965
 C          7.2823114493       -1.5606086636        0.0710235725
 H          7.7565224454       -2.4138372465       -0.4185609909
 H          8.0698184067       -0.8490742014        0.3282704047
 C          6.6265777646       -2.0655686346        1.3599367405
 H          7.4335642438       -2.2817314380        2.0632961243
 H          6.1203903663       -3.0128848879        1.1677951832
 C          5.6346014001       -1.1054543978        2.0289518309
 H          5.7712665412       -1.1754959112        3.1100313567
 H          5.8485803867       -0.0741139112        1.7479116749
 C          4.1528900351       -1.4144472581        1.7446176189
 H          4.0289703927       -2.4891058130        1.5826513997
 H          3.5651700963       -1.1462707985        2.6277440712
 H          6.1149468798        0.1344834356       -0.5696850947
 H          6.8853129276       -0.7525864400       -1.8685616977
 H          5.0289961146       -2.5851377576       -0.6814973816
 H          4.8721838773       -1.7727295967       -2.2455433358
 O          3.2558439326       -0.1299180079       -1.6891502740
 C          2.2141585489        0.7539865629       -1.4444736794
 O          1.7405063153        1.2852174849       -2.4654426696
 H         -0.3048307988       -0.5564933557        0.2303655488
 C         -0.9442040579        0.0944919456       -0.3532390423
 C         -0.5882145178        1.4293180657       -0.5076335938
 C         -1.4270882324        2.2553666953       -1.2433754752
 C         -2.5712891354        1.7461322318       -1.8345423257
 C         -2.9090011100        0.4128535927       -1.6985222643
 C         -2.0869490710       -0.4180870086       -0.9466826788
 N         -2.4271704347       -1.7713289752       -0.7851128130
 S         -4.0219524725       -2.1499314673       -0.4507422103
 O         -3.9693311412       -3.4007974292        0.2733044294
 O         -4.7848171368       -2.1645322085       -1.6740903976
 C         -4.6056251898       -0.8370562875        0.6074058990
 C         -5.6666358226       -0.0502489307        0.2083777006
 C         -6.0840758525        0.9812561950        1.0342909933
 C         -5.4335920208        1.2091267028        2.2367970286
 C         -4.3706307449        0.4078174196        2.6252354625
 C         -3.9505211351       -0.6260761488        1.8046177190
 H         -3.1295638238       -1.2684450110        2.0812785627
 H         -3.8645654619        0.5859959374        3.5605738575
 H         -5.7558838095        2.0148513671        2.8772578297
 H         -6.9111341107        1.6047994200        0.7356220332
 H         -6.1414634728       -0.2607876631       -0.7360065198
 H         -1.7930488903       -2.2875347380       -0.1940685360
 H         -3.7856974812       -0.0012141406       -2.1694058958
 H         -3.2072328034        2.3973106384       -2.4142621437
 H         -1.1807377189        3.2970689528       -1.3643514399
 C          0.6757873764        1.9090451244        0.1634129583
 H          0.5205071195        1.8593722346        1.2516290795
 C          1.0643018940        3.3241857521       -0.2083809313
 C          0.4641338309        4.4883422031        0.5201444597
 C          1.8980935296        4.1196489172        0.7495337570
 H          2.6690772524        4.7622439542        0.3515359315
 H          2.1637210329        3.6490284846        1.6850379054
 H         -0.2446634811        4.2749517622        1.3056276241
 H          0.2514231003        5.3895145066       -0.0348254214
 H          1.2775447506        3.4327520253       -1.2657321329
 O          2.0178188697        0.3675794592        2.1500631672
