  62
        -98.93066981
 C          2.4441194423        0.8729145579        0.0236720881
 C          2.9271295243       -0.2358515698        0.7644170450
 C          4.1105401021       -0.9199694679        0.2296576693
 C          4.6559184546       -0.4926123540       -0.9229695129
 C          5.8289078170       -1.0994457440       -1.6467318372
 C          7.1861961102       -1.0345417705       -0.9203871862
 C          7.5207079182       -2.2816956629       -0.0927295202
 H          6.9652397994       -3.1296627381       -0.4951550281
 H          8.5803659344       -2.5129501589       -0.2188876301
 C          7.2644099718       -2.1715096781        1.4132563251
 H          8.0699775218       -1.5925580786        1.8708149857
 H          7.3042278386       -3.1786542176        1.8338384268
 C          5.9434418894       -1.5175896975        1.8194001595
 H          5.7968938002       -1.6809140594        2.8890191081
 H          6.0108996273       -0.4359189442        1.6798027431
 C          4.7090119306       -2.0258721816        1.0493363564
 H          4.9710660860       -2.8733436388        0.4177004782
 H          3.9368334259       -2.3452401142        1.7520699400
 H          7.9511272425       -0.9220067728       -1.6903901924
 H          7.2227335578       -0.1415695385       -0.2968758451
 H          5.9026857512       -0.5521007558       -2.5886524797
 H          5.5940449410       -2.1398260606       -1.8827589228
 O          4.1528197152        0.5637162946       -1.6149373560
 C          3.0484938263        1.2798665297       -1.1667919263
 O          2.7310939378        2.2215182502       -1.9146424314
 O          2.3885916300       -0.6346517904        1.8326718542
 C          1.2370856112        1.5934507395        0.5964108522
 C         -0.0474656313        1.0371191294        0.0372296559
 C         -0.2543667136        0.9261137555       -1.3341735305
 C         -1.4483911999        0.4281248966       -1.8232443204
 C         -2.4546162137        0.0271825058       -0.9614407959
 C         -2.2575503199        0.1295128165        0.4086858618
 C         -1.0585421853        0.6338857752        0.8970417280
 H         -0.9041985484        0.7016842097        1.9657865253
 N         -3.2696787009       -0.2901812696        1.2873347873
 S         -4.8276063031        0.2886865192        1.0459394833
 O         -4.8114819940        1.5870250781        0.4135145538
 O         -5.4623090886        0.2115549973        2.3433189848
 C         -5.5723016318       -0.9119055422       -0.0369587144
 C         -6.1181826850       -0.5078039928       -1.2395392799
 C         -6.7032477180       -1.4574864073       -2.0626555069
 C         -6.7324850062       -2.7868937180       -1.6701259373
 C         -6.1821325829       -3.1759050311       -0.4578021145
 C         -5.5970199851       -2.2314229973        0.3702344687
 H         -5.1631639008       -2.4923632927        1.3210899164
 H         -6.2071512175       -4.2106774492       -0.1561090945
 H         -7.1873234024       -3.5242329263       -2.3126438625
 H         -7.1322634038       -1.1569083453       -3.0050401169
 H         -6.0684241092        0.5361620998       -1.5056388537
 H         -3.0125615444       -0.2390865132        2.2625457973
 H         -3.3850478037       -0.3625402391       -1.3406373381
 H         -1.5970672732        0.3497267150       -2.8896033846
 H          0.5277786032        1.2401630684       -2.0088704803
 H          1.2567489367        1.3505867402        1.6711180694
 C          1.3265414878        3.1088755845        0.4798426509
 C          0.4658202744        3.9311871557       -0.4262355337
 C          0.2402933166        3.9706293049        1.0536184581
 H          0.5164367340        4.8596695389        1.6000661030
 H         -0.6409237557        3.4745055586        1.4337236141
 H          0.9212792713        4.7822719377       -0.9087420456
 H         -0.2654556219        3.4271387587       -1.0378395745
 H          2.3443432383        3.4608778226        0.6156554343
