  62
        -98.94368832
 C          1.9550076990        1.2674830303       -0.1886114909
 C          2.2854715788        0.0755878502       -0.8782054209
 C          3.7108431588       -0.2897780197       -0.8768792213
 C          4.5981098690        0.5037032504       -0.2505733417
 C          6.0655793890        0.2169407004       -0.1226198921
 C          6.3669058494       -0.5730159094        1.1588503379
 C          5.4661439795       -1.7915658095        1.3612785583
 H          5.7896819098       -2.2857906494        2.2798791883
 H          4.4393310696       -1.4547609195        1.5223058686
 C          5.4908580592       -2.7992995296        0.2035848784
 H          5.5676322494       -3.8069613595        0.6174505885
 H          6.3750652390       -2.6342023096       -0.4131599119
 C          4.2445452089       -2.7766689397       -0.6833853512
 H          3.3483799091       -2.8496055597       -0.0614493410
 H          4.2679143788       -3.6606742698       -1.3264560212
 C          4.0979192786       -1.5518389098       -1.5949051213
 H          5.0169222585       -1.4053810798       -2.1661816716
 H          3.2848971684       -1.7574678099       -2.2977361610
 H          7.4106616094       -0.8909491494        1.1305656876
 H          6.2372306596        0.0934784906        2.0145654979
 H          6.3979930588       -0.3433692397       -0.9942946121
 H          6.6003128690        1.1675108904       -0.0870282523
 O          4.2441123891        1.6472486604        0.3893189283
 C          2.9205835591        2.0486756804        0.4493264687
 O          2.7333104193        3.1043870904        1.0870351386
 H         -1.2594516412       -0.2520631599       -0.8704717698
 C         -1.1103888909       -0.1966014898        0.1939926801
 C         -0.2581547608        0.7485173603        0.7420025798
 C         -0.0567148503        0.7509191404        2.1209956297
 C         -0.6909626801       -0.1720648495        2.9288725700
 C         -1.5447248102       -1.1128208596        2.3787696503
 C         -1.7481765506       -1.1287578097        1.0040469904
 N         -2.5828630308       -2.0977040998        0.4275263607
 S         -3.6693419211       -1.7284086400       -0.7845800690
 O         -4.5100791011       -2.9018232300       -0.8772638886
 O         -2.9826161015       -1.3363517101       -1.9875283492
 C         -4.6184415510       -0.3628295199       -0.1400017588
 C         -5.7335306107       -0.6392149099        0.6274332415
 C         -6.4525111806        0.4132627601        1.1698954816
 C         -6.0411982107        1.7183079601        0.9439762314
 C         -4.9177078810        1.9786260801        0.1747410810
 C         -4.1961698011        0.9301475401       -0.3742623991
 H         -3.3210977113        1.0966588000       -0.9799633694
 H         -4.5984431510        2.9932182301       -0.0027471192
 H         -6.6003520806        2.5379289701        1.3669565915
 H         -7.3287669404        0.2139953002        1.7655274819
 H         -6.0239770107       -1.6678127599        0.7678414717
 H         -2.9928934105       -2.7421108898        1.0873932809
 H         -2.0377065000       -1.8395323295        3.0065975105
 H         -0.5235468998       -0.1593558494        3.9952790899
 H          0.6185379198        1.4815245505        2.5454006994
 C          0.5124768390        1.7416251602       -0.0930642706
 H          0.5486418491        2.6914742803        0.4580722693
 C         -0.0749760114        2.0036523501       -1.4630050804
 C         -1.2308634215        2.9468593300       -1.6014899702
 C          0.1291790683        3.3518977700       -2.0837486906
 H          0.3054001580        3.4081446699       -3.1475118507
 H          0.6794144185        4.0846206201       -1.5111529708
 H         -1.6054324213        3.4111529601       -0.7015711901
 H         -1.9881312017        2.7296805899       -2.3402052299
 H         -0.0353558716        1.1454170600       -2.1227407603
 O          1.4457956686       -0.6513344099       -1.4702964606
