  62
        -98.94473210
 C         -0.4760714990       -1.7518020567       -0.9780120671
 C         -1.6269186851       -2.1335343916       -0.2435492697
 C         -2.8165413194       -1.2877350538       -0.3963632512
 C         -2.7561176728       -0.2132210807       -1.2025427165
 C         -3.8905007340        0.7386736560       -1.4527073313
 C         -3.8690321622        1.9296798121       -0.4856714192
 C         -3.6848971693        1.5385276389        0.9807175285
 H         -2.6851233271        1.1198583166        1.1253008048
 H         -3.7234213405        2.4592651901        1.5687346970
 C         -4.7370726414        0.5539790078        1.5103524663
 H         -5.0595101200        0.8907680392        2.4980295706
 H         -5.6141580917        0.5643758324        0.8613815292
 C         -4.2425080776       -0.8847543791        1.6726921505
 H         -3.2953592143       -0.8826675861        2.2193416644
 H         -4.9718853366       -1.4281685265        2.2799239824
 C         -4.0471182344       -1.6751567038        0.3725797334
 H         -3.9149727352       -2.7281382072        0.6386043347
 H         -4.9400066466       -1.5870134477       -0.2503552248
 H         -3.0490913878        2.5954252677       -0.7655429542
 H         -4.8041051572        2.4822329479       -0.6000576753
 H         -3.8036589433        1.1116243246       -2.4749926586
 H         -4.8308103327        0.1991916530       -1.3536154436
 O         -1.6349257051        0.1346937435       -1.8788155688
 C         -0.4560817437       -0.5988273528       -1.7641428820
 O          0.4881572502       -0.1194072160       -2.4150584435
 O         -1.6595101921       -3.1558235187        0.4955570153
 C          0.7622200882       -2.6097838087       -0.7806329682
 C          1.4895078383       -2.1631525752        0.4627808584
 C          1.9754931517       -3.0750948786        1.3920250530
 C          2.6029279481       -2.6347700374        2.5445001567
 C          2.7282381583       -1.2820653057        2.8065814074
 C          2.2405341399       -0.3632445912        1.8845019179
 C          1.6560496591       -0.8084927670        0.7096243050
 H          1.2938573557       -0.0884148385       -0.0072364762
 N          2.3208878673        1.0192092059        2.1081821278
 S          1.0281553244        1.9743727277        1.6246175502
 O          1.1247535511        3.1558334967        2.4594448615
 O         -0.2227072026        1.2557830395        1.7024689578
 C          1.3936915353        2.4389208245       -0.0520159497
 C          2.7070539645        2.5980508455       -0.4455019432
 C          2.9685021582        2.9989360641       -1.7453168554
 C          1.9207247045        3.2388762385       -2.6206214609
 C          0.6080782822        3.0818874235       -2.2071511091
 C          0.3404735355        2.6795894711       -0.9094764694
 H         -0.6654625376        2.5226344187       -0.5519022418
 H         -0.2074475138        3.2544108641       -2.8909845332
 H          2.1271006555        3.5425708105       -3.6348025893
 H          3.9886965810        3.1161636992       -2.0742002876
 H          3.4969225586        2.3938790235        0.2583566184
 H          2.6698609166        1.2895288637        3.0164517922
 H          3.1884294791       -0.9378062846        3.7202270869
 H          2.9775219539       -3.3519318928        3.2590017583
 H          1.8388204887       -4.1323768239        1.2187455351
 H          0.3817126764       -3.6263438918       -0.5886494877
 C          1.6669122097       -2.6817417861       -2.0009082703
 C          2.9678651982       -1.9491155657       -2.0985362089
 C          2.9611940032       -3.4378859579       -1.9370625385
 H          3.2402818575       -4.0523236856       -2.7794736068
 H          3.2595588695       -3.8367223530       -0.9794750433
 H          3.2308452350       -1.5250868282       -3.0549580161
 H          3.2721085383       -1.3442096243       -1.2587688993
 H          1.0961723369       -2.7694937436       -2.9194099024
