  62
        -98.93570374
 C         -1.6702688678       -0.4216915771       -0.1559422515
 C         -2.7965331999       -1.1918184799        0.2245670797
 C         -4.1288391623       -0.6725135728       -0.1405824071
 C         -4.2055975600        0.5061852436       -0.7850734116
 C         -5.4383908822        1.2520000633       -1.2219503956
 C         -6.1519284342        1.9514877571       -0.0537222758
 C         -6.2904405541        1.1095905175        1.2120417485
 H         -6.7102928314        1.7503936238        1.9919481840
 H         -5.2985081795        0.8005899283        1.5466765265
 C         -7.1888716197       -0.1181460428        1.0826363495
 H         -8.1897329592        0.2005423066        0.7828299472
 H         -7.2676606824       -0.5681056635        2.0756080609
 C         -6.7108709605       -1.1980370237        0.1096235742
 H         -6.9112893355       -0.9149551000       -0.9202669829
 H         -7.3034896641       -2.0966442030        0.3047506964
 C         -5.2478767803       -1.5989780446        0.2706366679
 H         -5.0790547750       -2.5295726833       -0.2848910422
 H         -5.0587393891       -1.8532645785        1.3197195585
 H         -7.1393633892        2.2688933980       -0.3931980695
 H         -5.5794982069        2.8462889959        0.2030015891
 H         -6.1149065714        0.5822280909       -1.7445712328
 H         -5.1084658292        2.0128180439       -1.9329496983
 O         -3.0964589624        1.2334670337       -1.0991855686
 C         -1.8117350416        0.8080117525       -0.7994795198
 O         -0.9235598534        1.6059252548       -1.1520047369
 O         -2.6996374231       -2.2771480984        0.8579463326
 C         -0.2990420980       -0.9582851925        0.2131447709
 C          0.5475725243        0.1261657273        0.8271956143
 C          0.1914121810        0.6313774945        2.0753442164
 C          0.9330024201        1.6330646676        2.6700444671
 C          2.0600196864        2.1366698398        2.0438361066
 C          2.4222440992        1.6412827670        0.7975198539
 C          1.6670980413        0.6431874176        0.1960014473
 H          1.9400158302        0.3129771735       -0.7914985268
 N          3.5575643483        2.1291813531        0.1385991428
 S          4.4696650295        1.1307125658       -0.8342043074
 O          5.7868261239        1.7327978212       -0.8279690804
 O          3.8626594425        0.9753782414       -2.1318700299
 C          4.5199222888       -0.4442015228        0.0057245372
 C          4.1680572228       -1.5895729697       -0.6782904803
 C          4.2087036973       -2.8072657249       -0.0176700666
 C          4.5965939748       -2.8574845970        1.3119999160
 C          4.9532435898       -1.6987204143        1.9846430216
 C          4.9177833045       -0.4796500646        1.3276202674
 H          5.1963840635        0.4360535732        1.8227627089
 H          5.2565179250       -1.7418946241        3.0182103756
 H          4.6213949267       -3.8054476739        1.8258020576
 H          3.9335288009       -3.7093978404       -0.5408742040
 H          3.8646131708       -1.5035094933       -1.7096127894
 H          4.1187150805        2.7846913862        0.6607239693
 H          2.6437482044        2.9175492868        2.5068710023
 H          0.6385790950        2.0212492828        3.6334172915
 H         -0.6864791422        0.2347896928        2.5670025237
 H         -0.5044561854       -1.7105159993        0.9931271296
 C          0.4120609915       -1.6899227155       -0.9149161935
 C         -0.3549364296       -2.4540436395       -1.9507449306
 C          0.3826988995       -1.2073149649       -2.3327429497
 H          1.2822803100       -1.2947476002       -2.9253664848
 H         -0.1844359962       -0.3148555947       -2.5476691995
 H          0.0337597855       -3.4054504485       -2.2808789345
 H         -1.4335468416       -2.4135375986       -1.9061457527
 H          1.3413842578       -2.1378995488       -0.5753544065
