  62
        -98.94393921
 C          1.7777455292        1.2083096735        0.3972072498
 C          1.9265096285        0.2853547428       -0.6658492525
 C          3.3072840184        0.0411440032       -1.1102815674
 C          4.3186313365        0.7042252482       -0.5204207316
 C          5.7729601697        0.5081736740       -0.8347682240
 C          6.3951217769       -0.5645002517        0.0701403180
 C          5.5857751177       -1.8596574455        0.1386416834
 H          6.1350363280       -2.5533564132        0.7789056111
 H          4.6298527675       -1.6593442306        0.6282894909
 C          5.3258842662       -2.5182737984       -1.2233580934
 H          6.0243836702       -2.1268518837       -1.9638276311
 H          5.5135922338       -3.5904930375       -1.1355704503
 C          3.8956358368       -2.3588242212       -1.7430508380
 H          3.1860664370       -2.6644033124       -0.9692703214
 H          3.7641020293       -3.0370708202       -2.5905965127
 C          3.5103568342       -0.9524254920       -2.2191970666
 H          4.2521036258       -0.5893976652       -2.9336713769
 H          2.5468163119       -1.0298355661       -2.7318259177
 H          7.4014231897       -0.7813563963       -0.2926502662
 H          6.4780605388       -0.1591573227        1.0811908567
 H          5.8787861907        0.2234117384       -1.8796242289
 H          6.2911105124        1.4543434145       -0.6703258198
 O          4.1321857137        1.6042360162        0.4785419787
 C          2.8650653522        1.8652727249        0.9734232200
 O          2.8375106542        2.6875858091        1.9113115948
 H         -2.0789839002        0.3836727110        0.4645718497
 C         -1.4870831760       -0.1877739504        1.1580849084
 C         -0.2150120113        0.2375164925        1.5051731250
 C          0.5158774137       -0.5220333078        2.4161141025
 C         -0.0106768190       -1.6790819214        2.9549682745
 C         -1.2763129419       -2.1078337758        2.5925576985
 C         -2.0158870857       -1.3579275169        1.6880247174
 N         -3.3186679740       -1.7415712858        1.3259782049
 S         -3.7257663585       -1.8149617519       -0.3020616781
 O         -4.9150452173       -2.6417589380       -0.3296867931
 O         -2.6204305689       -2.2716076853       -1.1100631103
 C         -4.1828565255       -0.1512368803       -0.7366640622
 C         -3.5474395360        0.4778912683       -1.7888267102
 C         -3.9408847957        1.7610240316       -2.1359888524
 C         -4.9560057015        2.3875251383       -1.4282911031
 C         -5.5828042998        1.7410781165       -0.3732905004
 C         -5.1971647798        0.4570598871       -0.0235617471
 H         -5.6636505124       -0.0829138334        0.7832015108
 H         -6.3692925481        2.2338414745        0.1750699576
 H         -5.2574886924        3.3869084978       -1.7007542140
 H         -3.4509138932        2.2662186902       -2.9533932528
 H         -2.7520446689       -0.0418335630       -2.3003853615
 H         -3.6534641150       -2.5663364300        1.8045224723
 H         -1.6872598654       -3.0160144000        3.0075495419
 H          0.5691708710       -2.2571039702        3.6590610570
 H          1.5063615627       -0.1883670579        2.6960382676
 C          0.3991005394        1.5045220813        0.9603232229
 H          0.5620205754        2.1887805508        1.8061236194
 C         -0.4621223860        2.2039499363       -0.0697900471
 C         -1.5567001706        3.1259169489        0.3743261048
 C         -0.3143923500        3.6835547134       -0.2511288573
 H         -0.3741342191        4.0881791796       -1.2501078465
 H          0.3981120947        4.1913183604        0.3828962905
 H         -2.4738417155        3.1489195158       -0.1943345385
 H         -1.6915442744        3.2610927627        1.4367309701
 H         -0.6224097654        1.6040019299       -0.9583266114
 O          0.9603864836       -0.3037813175       -1.2174474434
