  62
        -98.93959944
 C         -1.6196989571       -1.5219359034        0.3361312570
 C         -1.6707897080       -0.3731808395        1.1658661611
 C         -2.8530394390        0.4927560882        1.0344603540
 C         -3.8232286813        0.1413385977        0.1731650143
 C         -5.0896072785        0.8935648575       -0.1274904982
 C         -4.9103615356        1.7881075163       -1.3652514654
 C         -4.3285571638        3.1711223255       -1.0757580447
 H         -4.1217763470        3.6444355446       -2.0382148171
 H         -5.0812279282        3.7776994250       -0.5677804765
 C         -3.0458795064        3.1773942091       -0.2391984973
 H         -2.5321747748        4.1223442519       -0.4258598859
 H         -2.3877905382        2.3753980183       -0.5787070811
 C         -3.3057392791        3.0484298744        1.2701030308
 H         -2.7635695375        3.8363154656        1.7973970189
 H         -4.3645475897        3.2240701241        1.4605472306
 C         -2.8873421009        1.7135893102        1.9123306579
 H         -1.8717795422        1.7977595051        2.3124005456
 H         -3.5396372344        1.5109808311        2.7682293336
 H         -5.8818148049        1.9219769636       -1.8453033104
 H         -4.2670165752        1.2568768507       -2.0713207560
 H         -5.8536663568        0.1447806762       -0.3465271419
 H         -5.4040450836        1.4744267824        0.7348513499
 O         -3.7406305581       -0.9709845923       -0.6018881140
 C         -2.6402640186       -1.8132778261       -0.5696624310
 O         -2.7156975102       -2.7553096361       -1.3816513062
 H          2.0605491372       -1.3450992877        0.9077427704
 C          1.8588266526       -1.4747149655       -0.1443797185
 C          0.6498609407       -2.0137318702       -0.5582307197
 C          0.4182513504       -2.1778547787       -1.9202626655
 C          1.3816845669       -1.8071446768       -2.8399575375
 C          2.5822321716       -1.2570727831       -2.4245157140
 C          2.8227908550       -1.0877854304       -1.0660673876
 N          4.0404878504       -0.5547770358       -0.6175206017
 S          4.1016234427        0.5424127009        0.6442865861
 O          5.4488138447        1.0668563924        0.5863052015
 O          3.7246455940       -0.0991834374        1.8770198628
 C          2.9464106882        1.8258058239        0.2003960308
 C          3.3980250806        2.8215744596       -0.6457552864
 C          2.5203878120        3.8134227481       -1.0493940672
 C          1.2063266418        3.7910011594       -0.6060621345
 C          0.7701048088        2.7863768742        0.2422081604
 C          1.6430271887        1.7898369166        0.6516015718
 H          1.3107153660        1.0032765105        1.3109329451
 H         -0.2492056455        2.7611525292        0.5923630988
 H          0.5189002939        4.5609246805       -0.9193674317
 H          2.8606075994        4.5983380318       -1.7055074399
 H          4.4310515603        2.8094100817       -0.9538681762
 H          4.6763439113       -0.2876676762       -1.3549101745
 H          3.3306510154       -0.9657833104       -3.1456722827
 H          1.1935123347       -1.9412668804       -3.8945168505
 H         -0.5249691133       -2.5881014843       -2.2473515150
 C         -0.3861186857       -2.3987462051        0.4709937731
 H          0.0306231710       -2.1609936897        1.4597113425
 C         -0.6741010742       -3.8857087651        0.4246155373
 C          0.3281183014       -4.8312230939        1.0130122430
 C         -0.9872086056       -4.6111231503        1.6970653512
 H         -1.7229552075       -5.4008181160        1.6714762630
 H         -0.9956259787       -4.0369414583        2.6124121206
 H          1.2121811433       -4.4057628449        1.4646265151
 H          0.4986579364       -5.7746438477        0.5176831483
 H         -1.2002295791       -4.1997169177       -0.4668436135
 O         -0.7600795943       -0.0825425682        1.9886304037
