  62
        -98.93465071
 C         -2.1698296861       -0.8476625043        0.1103036801
 C         -3.0356504871       -0.2513093067        1.0586258364
 C         -3.8721668852        0.8683632248        0.5911892353
 C         -3.7444757058        1.2989359998       -0.6775675275
 C         -4.4239484818        2.4288596722       -1.4229116066
 C         -5.6561391102        3.1176586618       -0.8425270779
 C         -6.9091994796        2.2439448565       -0.7865168520
 H         -7.2576546389        2.0720870210       -1.8080370288
 H         -7.6887813985        2.7968658795       -0.2580316322
 C         -6.7332844015        0.8789054999       -0.1259192767
 H         -6.0192600689        0.2837000055       -0.6989610585
 H         -7.6941189338        0.3591039251       -0.1710596519
 C         -6.2924905609        0.9118850382        1.3360828676
 H         -6.3558497216       -0.1089336091        1.7230958803
 H         -6.9814984528        1.5306433859        1.9142675140
 C         -4.8591682432        1.4123710523        1.5836992061
 H         -4.5387761236        1.0485414278        2.5645777946
 H         -4.8191307397        2.4987593236        1.6110391726
 H         -5.8753414067        3.9657203974       -1.4969278826
 H         -5.4315159702        3.5278785090        0.1377214881
 H         -4.6705023381        2.0274850200       -2.4110871031
 H         -3.6476274759        3.1849711201       -1.5842216971
 O         -2.8454347335        0.7369048405       -1.5366367268
 C         -2.0438761868       -0.3391474724       -1.1821528310
 O         -1.2862216888       -0.7210297951       -2.0914342854
 O         -3.1009587870       -0.6309979098        2.2594072722
 C         -1.3118705708       -2.0124395485        0.5689780463
 C          0.1241381495       -1.7968682168        0.1601390076
 C          0.8498683667       -2.6899424475       -0.6156979560
 C          2.1674391342       -2.4210060361       -0.9441777961
 C          2.7872264088       -1.2637971697       -0.5119185298
 C          2.0726094749       -0.3645905902        0.2693175071
 C          0.7569196897       -0.6418176022        0.6051728093
 H          0.1990884814        0.0602901831        1.2142391027
 N          2.6865644315        0.8250241035        0.6981535887
 S          4.1987604725        0.7347856394        1.4202141499
 O          4.3871794261       -0.5272169668        2.0976050703
 O          4.2959787431        1.9236588922        2.2391476333
 C          5.3372995524        0.8754046711        0.0589840254
 C          6.2973744245       -0.0972043364       -0.1402471064
 C          7.1791821974        0.0394103947       -1.2011636815
 C          7.0866194419        1.1408469429       -2.0380753137
 C          6.1185917987        2.1104983803       -1.8222493063
 C          5.2346202960        1.9803121416       -0.7631690277
 H          4.4707848198        2.7122509240       -0.5594542892
 H          6.0494831392        2.9657459558       -2.4750883374
 H          7.7729328282        1.2448495200       -2.8635905585
 H          7.9328283879       -0.7127636296       -1.3704187249
 H          6.3282730652       -0.9386188021        0.5335501284
 H          2.0750502972        1.4336865477        1.2223201601
 H          3.8101478210       -1.0486437216       -0.7739881212
 H          2.7176542883       -3.1208667410       -1.5544489925
 H          0.3792819737       -3.5872147703       -0.9819337362
 H         -1.3550431810       -1.9629513860        1.6706805264
 C         -1.8543067803       -3.3797118363        0.1804481660
 C         -3.3190101238       -3.5905068270       -0.0573210739
 C         -2.3540840255       -3.6832545787       -1.1990999327
 H         -2.1476819955       -4.6587025634       -1.6148936138
 H         -2.3321478549       -2.8854384447       -1.9244413872
 H         -3.7729711343       -4.4981023981        0.3114717135
 H         -3.9649169236       -2.7261390370       -0.0019268928
 H         -1.3343036740       -4.1809370248        0.6968851995
