  62
        -98.94483011
 C         -1.0060007517       -1.1787177291       -0.3065795997
 C         -2.0589518319       -1.3595085883        0.6293126403
 C         -2.9454944413       -0.2114677777        0.8512190498
 C         -2.7119847506        0.9325214720        0.1830987195
 C         -3.5618107399        2.1659332625        0.2724469690
 C         -4.6664431298        2.1594282228       -0.7934342211
 C         -5.4605115605        0.8546592232       -0.8530425208
 H         -4.8008340109        0.0508997827       -1.1880220405
 H         -6.2310194203        0.9767325034       -1.6175481009
 C         -6.1173725109        0.4499985239        0.4740794692
 H         -7.1429466110        0.1319405445        0.2746702592
 H         -6.1699667205        1.3120221042        1.1399796490
 C         -5.4251623416       -0.7070269762        1.1970553797
 H         -5.2865877820       -1.5412015165        0.5045360100
 H         -6.0865328219       -1.0528326256        1.9960694197
 C         -4.0691103015       -0.3796839668        1.8351216997
 H         -3.7879827920       -1.2255556667        2.4691584000
 H         -4.1645894111        0.5059877335        2.4663284194
 H         -4.2059283696        2.3234129822       -1.7702829711
 H         -5.3451391993        2.9905480232       -0.5932770615
 H         -2.9224776394        3.0342955521        0.1116181888
 H         -4.0016086400        2.2261212930        1.2659269589
 O         -1.6922706204        1.0750560911       -0.6974789505
 C         -0.8174541409        0.0329505606       -0.9729974000
 O          0.0521472193        0.3326427698       -1.8146632600
 O         -2.2496319126       -2.4410375980        1.2482412006
 C         -0.0846575923       -2.3685560097       -0.5143775392
 C          1.1329610176       -2.2685816601        0.3740416109
 C          1.4632433970       -3.2944998100        1.2512398112
 C          2.5822280969       -3.1939644004        2.0589196013
 C          3.3862682676       -2.0702695808        2.0095573411
 C          3.0587595182       -1.0334886709        1.1408915207
 C          1.9409820983       -1.1411617806        0.3269249206
 H          1.7035499888       -0.3435146706       -0.3579889896
 N          3.8196577289        0.1387172186        1.1192106104
 S          3.8183321996        1.2084263883       -0.1580925599
 O          3.9073458494        0.5309928478       -1.4302895397
 O          4.9206245501        2.1007417277        0.1438761900
 C          2.3028680601        2.1295899391       -0.0110763903
 C          1.7204561701        2.2965073698        1.2291467995
 C          0.5853259405        3.0837125905        1.3338219092
 C          0.0624475410        3.6962788804        0.2058443489
 C          0.6562405310        3.5155039497       -1.0322325109
 C          1.7871704706        2.7234633791       -1.1444321606
 H          2.2669857006        2.5411878485       -2.0926224505
 H          0.2381798113        3.9772408297       -1.9123439811
 H         -0.8155514787        4.3175438710        0.2919390586
 H          0.1113754305        3.2150100611        2.2937383691
 H          2.1486386897        1.8060358899        2.0879952797
 H          4.6850293088        0.1280419783        1.6362948605
 H          4.2570785475       -1.9879088311        2.6415925512
 H          2.8307176164       -3.9976538803        2.7351990216
 H          0.8301682365       -4.1676052996        1.3064129114
 H         -0.6640731528       -3.2437152493       -0.1887643190
 C          0.3405080477       -2.5855889504       -1.9531363591
 C          0.7248404970       -3.9638776007       -2.3976656586
 C         -0.5555425426       -3.3504456002       -2.8781375690
 H         -0.6254959523       -3.0315681804       -3.9071848191
 H         -1.4836006929       -3.7285920995       -2.4742409589
 H          1.5403845270       -4.0680750314       -3.0968300085
 H          0.6625270165       -4.7614538805       -1.6728547184
 H          0.8925337082       -1.7522264008       -2.3688364393
