  62
        -98.94553923
 C          1.4608137496        1.3311798775       -0.5970459767
 C          2.7732540304        1.3104433410       -0.0553127766
 C          3.6515817494        0.2276695406       -0.5066341748
 C          3.1968678481       -0.6651920534       -1.4038918986
 C          3.9710917977       -1.8230717523       -1.9729341040
 C          3.9555135296       -3.0739464517       -1.0837790234
 C          4.8105676756       -2.9820968408        0.1808579622
 H          4.8875816877       -3.9918714618        0.5889329973
 H          5.8178842908       -2.6599752369       -0.0853857079
 C          4.2409063839       -2.0556490485        1.2645216279
 H          3.1827123818       -1.8671239296        1.0641767028
 H          4.2949015306       -2.5548996143        2.2348543275
 C          4.9681768873       -0.7177315163        1.4027703506
 H          5.9927794097       -0.8918009170        1.7390205650
 H          4.4562860724       -0.1292598456        2.1685668766
 C          5.0106857619        0.1153790525        0.1152755159
 H          5.3433402702        1.1243569962        0.3710687969
 H          5.7178335109       -0.3187809948       -0.5911857624
 H          2.9205540305       -3.2938551946       -0.8088952450
 H          4.3238169175       -3.9077989328       -1.6861662134
 H          3.5019860051       -2.0730646360       -2.9269717481
 H          5.0017500603       -1.5199072140       -2.1599074857
 O          1.9467979851       -0.5956158832       -1.9263642933
 C          1.0377766576        0.3727039756       -1.5181163991
 O         -0.0718653483        0.2660545734       -2.0748996393
 O          3.1939013177        2.1697622726        0.7654349122
 C          0.5393179403        2.4185654391       -0.0673906007
 C         -0.1892270136        1.8993989688        1.1507165689
 C          0.0336702609        2.4603797689        2.4021152468
 C         -0.5973715566        1.9487183132        3.5221453578
 C         -1.4496582707        0.8662528088        3.4134692331
 C         -1.6822370220        0.2974762920        2.1639118048
 C         -1.0666026619        0.8285446081        1.0402502955
 H         -1.2318225631        0.3755724236        0.0772500057
 N         -2.5556558007       -0.7875415323        2.0430522261
 S         -2.4879355182       -1.9111774903        0.8054775055
 O         -3.1298811414       -3.0809774316        1.3718776314
 O         -1.1421786600       -2.1038859855        0.3204990340
 C         -3.5722667750       -1.2210282474       -0.4259824337
 C         -4.9169085935       -1.1735010249       -0.1074954373
 C         -5.8062450267       -0.6325481675       -1.0199722144
 C         -5.3385052719       -0.1488876082       -2.2332270298
 C         -3.9883022620       -0.2073826334       -2.5383015770
 C         -3.0908894217       -0.7495820073       -1.6291951202
 H         -2.0334811822       -0.7916904451       -1.8420304164
 H         -3.6179969601        0.1687531805       -3.4788402390
 H         -6.0289483478        0.2752869310       -2.9452583517
 H         -6.8574136519       -0.5878004284       -0.7847688416
 H         -5.2377254908       -1.5712253758        0.8409158011
 H         -2.8715767094       -1.1888077700        2.9127287221
 H         -1.9298768940        0.4548652656        4.2882578268
 H         -0.4139739848        2.3885900030        4.4907426411
 H          0.7251645597        3.2846183656        2.4958243050
 H          1.2084097768        3.2239208077        0.2664592490
 C         -0.4261486922        2.9906151871       -1.0837259188
 C         -0.9939222026        4.3575316245       -0.8493570560
 C          0.0078928405        4.1388578427       -1.9423481810
 H         -0.3271057346        4.1679497858       -2.9680899902
 H          1.0093957976        4.5185689654       -1.8006480679
 H         -2.0215706898        4.5402083017       -1.1226003971
 H         -0.6714020977        4.8888851701        0.0332404980
 H         -1.0699848146        2.2495760428       -1.5375175530
