  62
        -98.93460999
 C          2.3283233307        1.1806563313        0.1303600557
 C          3.2373582331        0.4966182090        0.9734639116
 C          4.1584210747       -0.4573101149        0.3313224018
 C          4.0604787649       -0.6755291093       -0.9933145082
 C          4.8801502974       -1.5431072721       -1.9255504142
 C          5.8302136856       -2.6023857627       -1.3732456507
 C          5.1426368343       -3.7784860457       -0.6802714351
 H          5.9131231019       -4.4115287272       -0.2349704731
 H          4.6215887664       -4.3707788162       -1.4366662849
 C          4.1235379892       -3.4068951186        0.3940711091
 H          3.7036773625       -4.3346807002        0.7926135832
 H          3.2995679375       -2.8508208246       -0.0585361306
 C          4.6767859390       -2.6052757807        1.5707649922
 H          5.5228753746       -3.1359020694        2.0116764842
 H          3.8898379279       -2.5451400782        2.3279306210
 C          5.1155881326       -1.1671268035        1.2452569319
 H          6.1237952940       -1.1442101891        0.8385249281
 H          5.1259276529       -0.5990972217        2.1802061943
 H          6.5616177186       -2.1451416230       -0.7133663603
 H          6.3821181605       -3.0013700249       -2.2285844099
 H          5.4592629701       -0.8474018110       -2.5428700081
 H          4.1599402860       -2.0220186427       -2.5964926015
 O          3.1278455894       -0.0357973975       -1.7565770946
 C          2.2392131818        0.8919282459       -1.2310122963
 O          1.4464621643        1.3577023070       -2.0685407645
 O          3.2824285181        0.6770614389        2.2206755288
 C          1.3834495652        2.1802049777        0.7713851046
 C         -0.0342647620        1.9283647047        0.3214737422
 C         -0.8341967443        2.8863711027       -0.2856805394
 C         -2.1325819154        2.5816943809       -0.6567688116
 C         -2.6597802142        1.3237540687       -0.4339988757
 C         -1.8693130244        0.3568326278        0.1740851836
 C         -0.5733842456        0.6678762634        0.5528814142
 H          0.0423341771       -0.0870258782        1.0288212089
 N         -2.3949805976       -0.9313681473        0.3902150430
 S         -3.8322335319       -1.0458731234        1.2538602958
 O         -3.9687830295        0.0413539483        2.1958783175
 O         -3.8331237758       -2.3812263704        1.8111108852
 C         -5.0981281083       -0.9359832349        0.0073969641
 C         -6.0784474482        0.0318464020        0.1064727755
 C         -7.0606301386        0.0925098455       -0.8699327198
 C         -7.0452099926       -0.8110281355       -1.9214493362
 C         -6.0548303612       -1.7785958761       -2.0047849399
 C         -5.0709316997       -1.8457964121       -1.0313334932
 H         -4.2861713214       -2.5833744179       -1.0573645746
 H         -6.0459156158       -2.4793880261       -2.8240248860
 H         -7.8093999212       -0.7611394345       -2.6809404563
 H         -7.8315023943        0.8436031477       -0.8069302377
 H         -6.0455751063        0.7167732752        0.9386048769
 H         -1.7182009071       -1.5863852563        0.7547148104
 H         -3.6673662597        1.0815863865       -0.7300673235
 H         -2.7407316882        3.3349458746       -1.1338966850
 H         -0.4361146888        3.8669363147       -0.4873874021
 H          1.4350045026        1.9487758002        1.8493675764
 C          1.8163645452        3.6313203097        0.6248639984
 C          3.2591535905        3.9927946809        0.4404776002
 C          2.2857244653        4.2022698675       -0.6784661334
 H          2.0018264162        5.2149084978       -0.9252029829
 H          2.3244713818        3.5396889524       -1.5284894317
 H          3.6412986611        4.8574379378        0.9621187050
 H          3.9713101816        3.1847587842        0.3548403533
 H          1.2374440709        4.2904884558        1.2647139256
