  62
        -98.93898857
 C         -1.8172983539       -1.4611123109        0.2245214091
 C         -1.6778132237       -0.0837873212       -0.0636378363
 C         -2.8691116913        0.7487014509        0.1689518263
 C         -3.9894015183        0.1724896650        0.6417879901
 C         -5.3041195616        0.8667928171        0.8575879528
 C         -6.0217972978        1.0686485405       -0.4922822140
 C         -6.1861020324        2.5314892282       -0.9050903152
 H         -6.5020361686        2.5429463269       -1.9504705768
 H         -6.9879173226        2.9790757271       -0.3140766234
 C         -4.9420308488        3.4113158659       -0.7500484788
 H         -5.1281905064        4.3269587234       -1.3153411793
 H         -4.8300158600        3.7077529840        0.2938690874
 C         -3.6215822594        2.7956251450       -1.2307812725
 H         -3.0412883303        3.5787984853       -1.7230360455
 H         -3.8065282324        2.0227121296       -1.9771704175
 C         -2.7357574726        2.2205089940       -0.1099336485
 H         -1.6874823194        2.3536869055       -0.3942049935
 H         -2.9029747519        2.7838388327        0.8123072884
 H         -5.4619428246        0.5325036764       -1.2615507184
 H         -7.0117642190        0.6119445735       -0.4502694875
 H         -5.9013766211        0.2336071523        1.5139299447
 H         -5.1393435264        1.8223817913        1.3503252911
 O         -4.0798845621       -1.1555634793        0.9154539008
 C         -3.0035766391       -2.0039282550        0.7166574011
 O         -3.2212419115       -3.1948991208        1.0171267355
 H          1.9534137495       -1.8753984162       -0.8252156937
 C          1.7928973372       -1.7148863403        0.2271938719
 C          0.5482315292       -1.9248059486        0.7983008529
 C          0.3947484768       -1.7001672712        2.1649536260
 C          1.4554683917       -1.2650129276        2.9344659614
 C          2.6919277684       -1.0342877146        2.3555975521
 C          2.8574739640       -1.2600064656        0.9954702269
 N          4.1070753812       -1.0565681276        0.3789994872
 S          4.2297000407        0.0038442246       -0.9123764137
 O          3.3902683996       -0.4384000125       -1.9942273976
 O          5.6478259002        0.0741927318       -1.1921642680
 C          3.6793353081        1.5709973801       -0.2608515044
 C          2.3291438298        1.8090904481       -0.0994191225
 C          1.9323277728        3.0066917449        0.4766706490
 C          2.8783032794        3.9369900073        0.8771030850
 C          4.2306417413        3.6808099997        0.7061079644
 C          4.6365672061        2.4849718524        0.1376360430
 H          5.6757916809        2.2429323890       -0.0168703760
 H          4.9662476892        4.4057467999        1.0156828247
 H          2.5590575283        4.8657222056        1.3234545169
 H          0.8784746391        3.1950601751        0.6082089913
 H          1.6001733053        1.0798607816       -0.4162928305
 H          4.8537376688       -0.8644161597        1.0326563114
 H          3.5214483664       -0.6870955915        2.9529308641
 H          1.3188320201       -1.0961882637        3.9919283607
 H         -0.5747464558       -1.8718446814        2.6135625375
 C         -0.6445430021       -2.4000281913        0.0051753493
 H         -0.9560079930       -3.3750833785        0.4077934792
 C         -0.3671925196       -2.5534991900       -1.4755920989
 C          0.2631892816       -3.8089482007       -1.9959793302
 C         -1.1827576706       -3.5264394088       -2.2704537387
 H         -1.4754891651       -3.2561549293       -3.2740475264
 H         -1.9274368872       -4.1000600991       -1.7374478078
 H          0.9674310810       -3.7300528884       -2.8107117164
 H          0.5016195201       -4.5820917245       -1.2811310935
 H         -0.1025551015       -1.6172941910       -1.9548416830
 O         -0.6107308784        0.4293784537       -0.4901373087
