  62
        -98.94438329
 C          2.3566121017        1.1344918138        0.2471053017
 C          2.3642316076       -0.1431693051       -0.3636190603
 C          3.3565973040       -1.0924415996        0.1583996883
 C          4.1596473020       -0.7353251207        1.1765512064
 C          5.2043640283       -1.5994526428        1.8290059644
 C          6.5505608583       -1.6161722495        1.0917464644
 C          6.5642415326       -2.3990838594       -0.2217849917
 H          7.6095032244       -2.5124382254       -0.5159730884
 H          6.1636762261       -3.3989497371       -0.0517440966
 C          5.7997711031       -1.7247548051       -1.3694645872
 H          6.4043037438       -1.7575576497       -2.2786497729
 H          5.6379434250       -0.6712773380       -1.1301852430
 C          4.4528223502       -2.3687360994       -1.6986044713
 H          4.6115940640       -3.3847561873       -2.0669317430
 H          3.9821180344       -1.7908574961       -2.4980643581
 C          3.4751318913       -2.4252993124       -0.5173817220
 H          2.4865031481       -2.6933873859       -0.8993571182
 H          3.7899987125       -3.1870747957        0.1956618759
 H          6.8588621083       -0.5850906083        0.9045386897
 H          7.2841729233       -2.0656161086        1.7648865327
 H          5.3644721767       -1.1905040672        2.8289176092
 H          4.8281691222       -2.6182357970        1.9267450525
 O          4.0957471838        0.4904609908        1.7607220720
 C          3.2073708974        1.4510103313        1.3093571383
 O          3.2677281868        2.5332407422        1.9262531617
 O          1.5949759566       -0.4856038946       -1.3003739693
 C          1.3847902938        2.2182759468       -0.1947407166
 C         -0.0066159233        1.7856772520        0.1983776356
 C         -0.4285182913        1.9755808299        1.5116062016
 C         -1.6695551322        1.5298544762        1.9248046727
 C         -2.5120878519        0.8762902767        1.0415557787
 C         -2.0927748411        0.6664415401       -0.2644591370
 C         -0.8546407513        1.1363710088       -0.6840951264
 H         -0.5372438967        0.9551367888       -1.6984988711
 N         -2.9343363234       -0.0055239071       -1.1672440854
 S         -3.6809922179       -1.4203828790       -0.6604810908
 O         -2.9070182063       -2.1118402913        0.3446024970
 O         -3.9620514584       -2.1547782009       -1.8751512937
 C         -5.2205586506       -0.8541787493        0.0355645418
 C         -5.6043018251       -1.2777931404        1.2928209504
 C         -6.8124642135       -0.8361799186        1.8098190553
 C         -7.6120728696        0.0158386626        1.0637277387
 C         -7.2137343201        0.4300202174       -0.1986328450
 C         -6.0079590931       -0.0088433752       -0.7216245187
 H         -5.6637441255        0.2879799935       -1.6981129017
 H         -7.8378816717        1.0932157219       -0.7756074848
 H         -8.5508417621        0.3592316305        1.4687874990
 H         -7.1234024536       -1.1577599018        2.7908687930
 H         -4.9468751538       -1.9352519262        1.8394700122
 H         -2.5200881142       -0.1318169335       -2.0799387380
 H         -3.4756250917        0.5140191812        1.3607313996
 H         -1.9847765923        1.6880694045        2.9450286867
 H          0.2394303827        2.4652037651        2.2069997103
 H          1.6420069153        3.1094552424        0.3928184049
 C          1.5367035148        2.5449739916       -1.6655758821
 C          0.9301934200        3.8053460834       -2.2027128935
 C          2.4182459255        3.6854008555       -2.0730639464
 H          3.0089907439        3.5834712407       -2.9711735690
 H          2.9107540845        4.2410665605       -1.2883860368
 H          0.4975690582        3.7899051252       -3.1913735213
 H          0.4107091183        4.4433827072       -1.5040112336
 H          1.5390653806        1.6699003149       -2.3033867007
