  62
        -98.94760139
 C          0.8024652410        1.1592780567        0.5961489184
 C          1.2619753257        0.7544575620       -0.6802969463
 C          2.1887969301       -0.3839282885       -0.6879210649
 C          2.5043302754       -0.9975644006        0.4665092972
 C          3.4746537289       -2.1362839896        0.6251569226
 C          4.9383394965       -1.6843477002        0.7306941418
 C          5.5654303444       -1.2062879713       -0.5797886078
 H          5.4052936908       -1.9576978822       -1.3534811710
 H          6.6420453856       -1.1360315673       -0.4118920542
 C          5.0548102868        0.1558019666       -1.0701391376
 H          5.9024260825        0.7698318127       -1.3832518154
 H          4.5676472439        0.6816937292       -0.2456029937
 C          4.0872006450        0.0850260363       -2.2518882526
 H          4.6038569236       -0.3208535603       -3.1243939659
 H          3.7685716998        1.1023908552       -2.4924256624
 C          2.8295194336       -0.7551663630       -1.9908791967
 H          3.0752635533       -1.8160646991       -2.0069347917
 H          2.1083117617       -0.5475852665       -2.7847544356
 H          5.5175921069       -2.5361900218        1.0944569018
 H          5.0084611459       -0.8919507749        1.4795218726
 H          3.2068501307       -2.6522601517        1.5488255612
 H          3.3729674051       -2.8290513491       -0.2091314692
 O          1.9604658248       -0.6382853563        1.6606517841
 C          1.1217304412        0.4599673524        1.7586450204
 O          0.7283338744        0.7055110771        2.9185471410
 H         -1.6030871007        0.2505178987        0.4534284608
 C         -1.9778480865        1.0655893500       -0.1487639430
 C         -1.2982132952        2.2767551263       -0.1417133221
 C         -1.7977210175        3.3242437369       -0.9049034973
 C         -2.9416866862        3.1508624929       -1.6644097346
 C         -3.6125224529        1.9423246681       -1.6720645916
 C         -3.1236280296        0.8890613104       -0.9062031467
 N         -3.7578038898       -0.3588160073       -0.9197823754
 S         -3.6144160986       -1.4321998004        0.3436618499
 O         -4.6444330100       -2.4175334432        0.0877668399
 O         -3.6869350150       -0.7729655682        1.6272598522
 C         -2.0261790612       -2.2016272718        0.1165763521
 C         -1.2566103774       -2.4926846385        1.2249878794
 C         -0.0596361936       -3.1681954331        1.0522234646
 C          0.3458846226       -3.5353610776       -0.2209816159
 C         -0.4302828902       -3.2221307234       -1.3256957617
 C         -1.6319588763       -2.5538359455       -1.1586132186
 H         -2.2635313629       -2.3007679182       -1.9937795029
 H         -0.1049899150       -3.5007542658       -2.3149518278
 H          1.2709001607       -4.0736102538       -0.3503145447
 H          0.5484989044       -3.3998989331        1.9120873618
 H         -1.6004852102       -2.1764295651        2.1979378374
 H         -4.6479652374       -0.4032560406       -1.3916379569
 H         -4.5028978999        1.8080753173       -2.2668771555
 H         -3.3178955455        3.9704836210       -2.2576874377
 H         -1.2902267991        4.2748636497       -0.9093954474
 C         -0.0681205996        2.3950658794        0.7237278339
 H         -0.3970211035        2.4319925099        1.7735247886
 C          0.7592510000        3.6302787697        0.4267048346
 C          0.4658021205        4.9273978781        1.1166737574
 C          1.6905836242        4.1448129195        1.4813402162
 H          2.6558733810        4.5229013692        1.1794771251
 H          1.7030362387        3.6214237191        2.4268096002
 H         -0.3508604864        4.9451458907        1.8226779836
 H          0.5937368572        5.8467476076        0.5652550252
 H          1.1023559136        3.6613238566       -0.6013080464
 O          0.9319080614        1.3226287999       -1.7528218642
