  62
        -98.93251555
 C         -1.5603888279       -1.6006949251        0.5555044872
 C         -1.7503806129       -0.3058882595        1.1036785052
 C         -2.9954733675        0.3879987129        0.7415607239
 C         -3.8617888765       -0.2226873935       -0.0870216232
 C         -5.1458666546        0.3645200508       -0.6010405757
 C         -4.8544115981        1.3941816387       -1.7108549531
 C         -5.2345662977        2.8301011039       -1.3494856859
 H         -4.7926909762        3.4865750773       -2.1021839585
 H         -6.3193246360        2.9376222606       -1.4156056179
 C         -4.8000190055        3.3009766302        0.0412713934
 H         -4.9088461154        4.3875813532        0.0569468654
 H         -5.4866422210        2.9095767036        0.7933452397
 C         -3.3649969261        2.9429089224        0.4491513859
 H         -2.7454457625        2.7850134862       -0.4334046536
 H         -2.9500193480        3.7977551988        0.9873633592
 C         -3.2438412754        1.7254770907        1.3839039835
 H         -4.1357744191        1.6632471546        2.0141583073
 H         -2.3852991862        1.8749609426        2.0455359383
 H         -3.7905303288        1.3460549614       -1.9519806872
 H         -5.3938096523        1.1151020530       -2.6172753176
 H         -5.7430922876       -0.4586007575       -0.9940770328
 H         -5.6910358617        0.8281778493        0.2183044095
 O         -3.6280558985       -1.4472417059       -0.6224961651
 C         -2.4781226818       -2.1713156758       -0.3263835016
 O         -2.4189366582       -3.2708115241       -0.9048682781
 O         -0.9177345459        0.2346828074        1.8791998819
 C         -0.2903289603       -2.3241119411        0.9678224367
 C          0.8297645097       -1.9641797743        0.0272689560
 C          0.7033553474       -2.1488598402       -1.3462728342
 C          1.7288412642       -1.7850268067       -2.2002300839
 C          2.8923442634       -1.2196279081       -1.7062209080
 C          3.0191491777       -1.0144540377       -0.3393796083
 C          1.9944974893       -1.3936703651        0.5181110484
 H          2.0946712946       -1.2210113894        1.5810838676
 N          4.1881706969       -0.4012324584        0.1619779924
 S          4.4277960171        1.1912563709       -0.3105188531
 O          4.6796913466        1.2239352881       -1.7280748644
 O          5.4821631702        1.6917147019        0.5409238025
 C          2.8859097254        2.0022542981        0.0661811266
 C          1.8577191223        1.9515096753       -0.8535076194
 C          0.6342080106        2.5064843725       -0.5170224953
 C          0.4596858569        3.0981771084        0.7234011093
 C          1.5023218765        3.1415816778        1.6350271153
 C          2.7264772218        2.5821853397        1.3086861973
 H          3.5633852111        2.5944778460        1.9887947725
 H          1.3596579039        3.5992106547        2.6007065653
 H         -0.4968878987        3.5223208013        0.9816972833
 H         -0.1816038519        2.4666797260       -1.2214626687
 H          2.0295971215        1.4861343443       -1.8105600736
 H          4.2597138056       -0.4545951006        1.1690573318
 H          3.6917306322       -0.9110772560       -2.3602489442
 H          1.6208249103       -1.9402608682       -3.2632753347
 H         -0.2090331580       -2.5779862912       -1.7333676663
 H         -0.0379959992       -1.9010129365        1.9531938418
 C         -0.4699540167       -3.8234742619        1.1542873907
 C          0.1746831123       -4.8559259061        0.2837613805
 C          0.6684807052       -4.6466023199        1.6817379666
 H          0.4637540517       -5.4011061525        2.4260001194
 H          1.6215657320       -4.1532209668        1.8024838346
 H         -0.3964075624       -5.7436615159        0.0588980832
 H          0.7997463443       -4.5258920145       -0.5307007774
 H         -1.4584183008       -4.0683375843        1.5287119781
