  62
        -98.93562326
 C         -2.4053971239       -0.9986002674       -0.1550475565
 C         -3.5561643873       -0.9117996892        0.6632644337
 C         -4.6437135302       -0.0641256399        0.1574545684
 C         -4.5031412835        0.5614892997       -1.0252886308
 C         -5.5307409739        1.4177997396       -1.7174950238
 C         -5.9154742101        2.7311604111       -1.0092865389
 C         -7.1532684267        2.6259682800       -0.1097200019
 H         -7.7690745796        1.7947108426       -0.4553203810
 H         -7.7525424696        3.5307413616       -0.2301568623
 C         -6.8777191370        2.4694827022        1.3888576101
 H         -7.8074281441        2.1570178584        1.8693029392
 H         -6.6039086263        3.4418131018        1.8047420357
 C         -5.7711416291        1.4836876778        1.7640179257
 H         -5.8109357712        1.3204541629        2.8429151694
 H         -4.7958634935        1.9300561477        1.5555850244
 C         -5.8450195860        0.1267694110        1.0371348938
 H         -6.7625325372        0.0509523986        0.4555373003
 H         -5.8305461958       -0.6866765299        1.7653497749
 H         -6.1255548653        3.4616509957       -1.7921348364
 H         -5.0619393887        3.1023426205       -0.4426969350
 H         -6.4296399660        0.8195870386       -1.8833663498
 H         -5.1016380092        1.6523338026       -2.6937262509
 O         -3.3782052184        0.4478525247       -1.7836179748
 C         -2.3010222340       -0.3204125441       -1.3691410456
 O         -1.3375221505       -0.3223067365       -2.1582787893
 O         -3.6713228399       -1.5184521309        1.7622428942
 C         -1.2423475795       -1.8591243935        0.3041398609
 C         -0.0017324624       -1.0140208189        0.4531791338
 C         -0.0487110983        0.0993009785        1.2891032751
 C          1.0612125272        0.9027750849        1.4607790598
 C          2.2454668168        0.6163092728        0.8031276048
 C          2.3072845954       -0.4954160133       -0.0240044139
 C          1.1896996752       -1.3054128851       -0.1902296711
 H          1.2559645323       -2.1643058409       -0.8396779015
 N          3.5016581147       -0.7891016178       -0.7005736344
 S          4.9459203160       -0.7763750502        0.1498799140
 O          5.8283655480       -1.6484771757       -0.5941932020
 O          4.7434166780       -1.1050054557        1.5418118260
 C          5.5258512819        0.8998512775       -0.0047686598
 C          5.6496659611        1.4325540746       -1.2729610825
 C          6.1143873310        2.7306226709       -1.4107927217
 C          6.4486260602        3.4688614138       -0.2850928440
 C          6.3216697523        2.9186438573        0.9810685179
 C          5.8563127715        1.6208546653        1.1258078427
 H          5.7368222445        1.1537161752        2.0904746142
 H          6.5824795725        3.4940607158        1.8547980278
 H          6.8104851947        4.4789106299       -0.3956653489
 H          6.2139833289        3.1620285791       -2.3938480595
 H          5.3824420358        0.8262429019       -2.1223612885
 H          3.4425231926       -1.5895140495       -1.3127589031
 H          3.1145226605        1.2411731120        0.9289892573
 H          1.0060433198        1.7632617860        2.1104068990
 H         -0.9737720428        0.3249215296        1.8023595815
 H         -1.5261475797       -2.2230071327        1.3027722988
 C         -1.0723731456       -3.0503362970       -0.6146451697
 C         -0.4216848900       -4.3028088663       -0.1098354850
 C         -1.8971262721       -4.2768885393       -0.3705690929
 H         -2.2808645525       -4.8181254961       -1.2223239563
 H         -2.5677392848       -4.2631902669        0.4760085518
 H          0.2071098571       -4.8668731554       -0.7825548050
 H         -0.0869520537       -4.3128457644        0.9165988729
 H         -0.9011873463       -2.7621577330       -1.6460295927
