  62
        -98.94069536
 C          2.0570402971        0.9676449486        0.2927181130
 C          1.9448302464       -0.0294095849       -0.7081470918
 C          2.2116236732       -1.4068252830       -0.2693106485
 C          2.5024042735       -1.6643459137        1.0171678158
 C          2.7663932847       -3.0194751591        1.6162113554
 C          4.2075423254       -3.5157208216        1.4332318237
 C          4.5728747013       -3.9514585953        0.0135803943
 H          5.5270935888       -4.4781622434        0.0763668733
 H          3.8302708680       -4.6629806520       -0.3485468064
 C          4.7122387122       -2.7966697921       -0.9881552233
 H          4.8188233254       -1.8545929107       -0.4456587055
 H          5.6217495671       -2.9329035521       -1.5773665268
 C          3.5497385663       -2.6682415831       -1.9728640283
 H          3.7311391043       -1.7978323990       -2.6083299712
 H          3.5110562833       -3.5518733595       -2.6137520646
 C          2.1795264470       -2.4883193230       -1.3067160747
 H          1.8474285507       -3.4275962475       -0.8638885301
 H          1.4546163056       -2.1911902694       -2.0695076254
 H          4.8904675781       -2.7283180215        1.7599421357
 H          4.3428455729       -4.3713087088        2.0988179724
 H          2.0705853698       -3.7455723245        1.1942084428
 H          2.5650750185       -2.9283756673        2.6858426543
 O          2.5772994842       -0.6835720891        1.9561079918
 C          2.3568684138        0.6395796532        1.6176057134
 O          2.4665051608        1.4333541380        2.5758821637
 O          1.6407799531        0.1891748175       -1.9110663556
 C          1.7824952140        2.4428546989        0.0524200603
 C          0.3164773684        2.7517602758        0.2549554674
 C         -0.0800697456        3.9039092618        0.9249348244
 C         -1.4209002076        4.1733290200        1.1309957248
 C         -2.3903746218        3.2872390852        0.6972633087
 C         -2.0038769516        2.1351330115        0.0224264576
 C         -0.6601782810        1.8873704040       -0.2153012860
 H         -0.3867023023        0.9919686913       -0.7519247162
 N         -2.9530886862        1.2053062913       -0.4313860986
 S         -2.5575127091       -0.4347977575       -0.2913765309
 O         -1.8015692559       -0.6596709065        0.9206578140
 O         -1.9569402067       -0.8786712405       -1.5231572252
 C         -4.1895807468       -1.1416982894       -0.1406551741
 C         -4.9114048143       -1.4079609707       -1.2889319948
 C         -6.1950206896       -1.9170206349       -1.1704833785
 C         -6.7330448869       -2.1489607401        0.0867213428
 C         -5.9959748145       -1.8789628170        1.2300871487
 C         -4.7121359345       -1.3683191852        1.1186600920
 H         -4.0981155403       -1.1503722784        1.9779918636
 H         -6.4150071176       -2.0633488689        2.2061182738
 H         -7.7320967330       -2.5451163979        0.1764310023
 H         -6.7695147012       -2.1309132487       -2.0572119900
 H         -4.4467238148       -1.2194870774       -2.2427015668
 H         -3.8855316963        1.3939741735       -0.0883478572
 H         -3.4361476153        3.4820446265        0.8804073495
 H         -1.7139418813        5.0709568192        1.6538594424
 H          0.6723467896        4.5799688656        1.3026565255
 H          2.3426188951        2.9836034360        0.8290675972
 C          2.2390295447        2.9468776130       -1.3029978862
 C          2.6201040075        4.3868715340       -1.4615144021
 C          3.6750744913        3.3231725841       -1.5024378945
 H          4.1407589599        3.0862526724       -2.4469794218
 H          4.3368231757        3.2278175355       -0.6535257521
 H          2.3587982072        4.8874873464       -2.3809727760
 H          2.5760430289        5.0188807011       -0.5877797316
 H          1.7323143942        2.4636276006       -2.1280583783
