  62
        -98.93443495
 C         -2.8664658045       -0.1812163944       -0.2908269985
 C         -2.1925265161       -0.6254052649        0.8728181605
 C         -1.8062469411       -2.0461080584        0.8877298338
 C         -2.2024239328       -2.8515109833       -0.1125835829
 C         -1.9304231235       -4.3256568371       -0.2676038463
 C         -0.4709266411       -4.7796719824       -0.0885389148
 C          0.5928276535       -3.7180829703       -0.4076115609
 H          1.3461319868       -4.1606230333       -1.0619185042
 H          0.1419403459       -2.8847840112       -0.9497440568
 C          1.3130575859       -3.1947579799        0.8387743427
 H          1.5356337675       -4.0427945438        1.4896880410
 H          2.2657100696       -2.7561917352        0.5322690643
 C          0.5679798513       -2.1330770288        1.6498022374
 H          0.5684049286       -1.1772720114        1.1149760776
 H          1.1202843522       -1.9681423545        2.5785218055
 C         -0.8917068310       -2.4688544258        2.0000605188
 H         -1.0062360692       -3.5228960268        2.2414895898
 H         -1.1730553135       -1.8734825287        2.8728120175
 H         -0.3248203709       -5.6434661790       -0.7385299390
 H         -0.3229050818       -5.1262163591        0.9334222606
 H         -2.2733084837       -4.5753179747       -1.2739407985
 H         -2.5650521377       -4.8692803054        0.4369599216
 O         -2.9570489853       -2.4030022774       -1.1549634736
 C         -3.2572328621       -1.0576556405       -1.3003813709
 O         -3.8646916260       -0.7753443847       -2.3532419505
 O         -1.9064123053        0.1263144609        1.8403429135
 C         -3.1458341656        1.2964511974       -0.4798054056
 C         -1.8740794912        2.1002416730       -0.3233227653
 C         -1.8733513889        3.3955321163        0.1802586311
 C         -0.6866340850        4.0922572588        0.3303014164
 C          0.5237795299        3.5152046085       -0.0060474629
 C          0.5350589496        2.2227294919       -0.5131484128
 C         -0.6579888315        1.5382861766       -0.6884991210
 H         -0.6379800011        0.5325112917       -1.0913794909
 N          1.7599283835        1.6162837019       -0.8538410898
 S          3.0174092594        1.8035117662        0.2644359000
 O          2.5226785005        1.6690709248        1.6142093899
 O          3.6929228647        3.0424888046       -0.0363321229
 C          4.0707594257        0.4299285223       -0.1552626171
 C          4.7946083864        0.4818015920       -1.3318759598
 C          5.6022912212       -0.5930376324       -1.6671503996
 C          5.6740738980       -1.6933571024       -0.8251204222
 C          4.9446010003       -1.7286035529        0.3534691082
 C          4.1316117652       -0.6580171868        0.6936163225
 H          3.5473960943       -0.6377402441        1.5999824283
 H          5.0054001550       -2.5829577282        1.0085277762
 H          6.3051141117       -2.5277595795       -1.0871732032
 H          6.1737884134       -0.5689552005       -2.5808835971
 H          4.7164937706        1.3613049863       -1.9493314187
 H          1.6421501464        0.6415324781       -1.0956582654
 H          1.4582596216        4.0349119676        0.1336706549
 H         -0.7029326966        5.0959208441        0.7278931937
 H         -2.8042398906        3.8567277135        0.4677757130
 H         -3.5060399509        1.4130145050       -1.5130860143
 C         -4.2401181904        1.7473550684        0.4686073534
 C         -5.2330125649        2.7893136205        0.0514195017
 C         -5.6556755387        1.3569156913        0.1706458265
 H         -6.2961683532        1.0712084114        0.9914631852
 H         -5.8309503680        0.7960675856       -0.7361587773
 H         -5.5875660598        3.4891536487        0.7933007548
 H         -5.1376158648        3.2053229558       -0.9402918494
 H         -3.9214215904        1.7266806095        1.5047699876
