  62
        -98.94334772
 C          1.8797765555        0.8328312758        0.6727182160
 C          2.2526761159        0.4359576061       -0.6343495955
 C          3.6944378463        0.4640643771       -0.9211997113
 C          4.5488579326        0.8850302603        0.0292753626
 C          6.0430722070        0.9081595837       -0.1095840947
 C          6.6648985675       -0.4039624252        0.3889034227
 C          5.9976695886       -1.6573697126       -0.1776432410
 H          6.5373195377       -2.5203651150        0.2185687911
 H          4.9740996043       -1.7185002883        0.1994548438
 C          5.9761108361       -1.7269813085       -1.7110037354
 H          6.2678217703       -2.7331446711       -2.0194929787
 H          6.7124127892       -1.0360307387       -2.1231330434
 C          4.6099093837       -1.4464287872       -2.3399330987
 H          3.8507367649       -2.0716147355       -1.8628044723
 H          4.6557765004       -1.7346534313       -3.3935001458
 C          4.1361980463        0.0115384323       -2.2844093266
 H          4.9159211503        0.6675313169       -2.6764674813
 H          3.2557380959        0.0988650615       -2.9275139257
 H          6.5820392071       -0.4345352739        1.4779183879
 H          7.7250284229       -0.4048866482        0.1290979910
 H          6.4316878729        1.7340705731        0.4885088562
 H          6.3042008576        1.0732422225       -1.1529364689
 O          4.1474486998        1.2946245296        1.2603954809
 C          2.8095549331        1.2620264349        1.6186529550
 O          2.5791341865        1.6325141464        2.7882586184
 O          1.4281188530        0.0731380787       -1.5125112559
 C          0.4183576787        0.8072601606        1.0777511776
 C         -0.1710498608       -0.5697511812        0.8874318197
 C          0.5937107315       -1.6932165315        1.1902166226
 C          0.0795004234       -2.9645757986        1.0284878408
 C         -1.2197562299       -3.1444556630        0.5877980305
 C         -2.0004837232       -2.0315151973        0.3049998197
 C         -1.4733092776       -0.7549903089        0.4484424671
 H         -2.0958087955        0.0943626935        0.2206564243
 N         -3.3226495615       -2.1762906998       -0.1419108680
 S         -4.5156434284       -1.1802961861        0.4795395434
 O         -4.2318769962       -0.7959849113        1.8424701017
 O         -5.7479602187       -1.9114534749        0.2707046086
 C         -4.5215327895        0.2526710162       -0.5765589930
 C         -4.3048373676        0.0935752407       -1.9309684053
 C         -4.3608741400        1.2083910682       -2.7521415635
 C         -4.6410663400        2.4542986191       -2.2114213214
 C         -4.8626305057        2.5961775144       -0.8503920543
 C         -4.8024405669        1.4857470299       -0.0224752249
 H         -4.9548721020        1.5534807567        1.0428879816
 H         -5.0800875570        3.5655437532       -0.4304175749
 H         -4.6852825217        3.3198286415       -2.8536118634
 H         -4.1857568929        1.1025248844       -3.8107114176
 H         -4.0874720283       -0.8877163955       -2.3183032621
 H         -3.6417678087       -3.1311470271       -0.2195628054
 H         -1.6251164116       -4.1374225793        0.4650851819
 H          0.6916906346       -3.8245789921        1.2558903721
 H          1.6053503886       -1.5561821276        1.5482566567
 H          0.3941550144        1.0378430994        2.1537602232
 C         -0.3386018485        1.8887306982        0.3327707405
 C         -1.4992698919        2.5871442353        0.9728987914
 C         -0.1988074862        3.3086169621        0.7899608983
 H         -0.1406863416        4.0877899661        0.0451493448
 H          0.4166649812        3.4883536055        1.6597309956
 H         -2.3334846517        2.8717631332        0.3494581823
 H         -1.7787083390        2.2836923957        1.9710260262
 H         -0.3759558741        1.7062271861       -0.7351892511
