  62
        -98.94667200
 C          1.1740581279        1.3638944339        0.2804006179
 C          1.3641146075        0.3215226748       -0.6591515188
 C          2.3495409633       -0.7017689074       -0.2853270903
 C          2.9396312369       -0.6625197755        0.9220035060
 C          3.9498422214       -1.6440894533        1.4505636292
 C          5.3906558027       -1.3426030718        1.0154249890
 C          5.7000202174       -1.6418392398       -0.4521482363
 H          6.7848933259       -1.5951145523       -0.5659939009
 H          5.3928168113       -2.6613693920       -0.6872290594
 C          5.0581260967       -0.6655398754       -1.4480067074
 H          5.8002748996       -0.3638796348       -2.1907127726
 H          4.7475358632        0.2401966165       -0.9220523660
 C          3.8595474397       -1.2313269626       -2.2104185126
 H          4.1874100015       -2.0568842297       -2.8460448024
 H          3.4654708562       -0.4443145117       -2.8584230540
 C          2.7162979166       -1.7273684547       -1.3147621098
 H          1.8375724989       -1.8986027982       -1.9406600133
 H          2.9963051987       -2.6654853443       -0.8373847375
 H          6.0534480938       -1.9508173497        1.6353474677
 H          5.6086045115       -0.2933656307        1.2277885843
 H          3.6850737523       -2.6552165757        1.1402674772
 H          3.9004692080       -1.5871686654        2.5400626505
 O          2.6576361134        0.3012261148        1.8372546784
 C          1.8109472007        1.3494252544        1.5265041600
 O          1.6988423404        2.1982924650        2.4333656543
 O          0.7646217938        0.2277953793       -1.7634881439
 C          0.2802551184        2.5696213524        0.0254197515
 C         -1.1695866806        2.2189538094        0.2520853061
 C         -1.8781006675        2.7601454083        1.3183047491
 C         -3.1984365392        2.4076844453        1.5417382530
 C         -3.8361810121        1.5024797583        0.7116296614
 C         -3.1308208098        0.9499414218       -0.3489566464
 C         -1.8140036899        1.3154086043       -0.5811769847
 H         -1.2672231635        0.8666434304       -1.3972552643
 N         -3.7553015487       -0.0233549555       -1.1663409768
 S         -3.9709260719       -1.5057848580       -0.4167871832
 O         -4.4137017521       -2.4139688693       -1.4495197981
 O         -4.8613616803       -1.3271309389        0.7015864342
 C         -2.3545360333       -1.9880397799        0.1674100296
 C         -1.8596133993       -1.4113821083        1.3204905942
 C         -0.5887463222       -1.7582267105        1.7486539509
 C          0.1563396607       -2.6779877105        1.0279243729
 C         -0.3528819850       -3.2447138362       -0.1296840924
 C         -1.6165122292       -2.8898956990       -0.5717744359
 H         -2.0502605387       -3.3053966680       -1.4673092160
 H          0.2321515380       -3.9569094728       -0.6888697667
 H          1.1392542057       -2.9525896595        1.3755072573
 H         -0.1816091409       -1.3048711238        2.6393544820
 H         -2.4701134423       -0.7121452736        1.8686451377
 H         -3.2550701553       -0.1746529919       -2.0325181124
 H         -4.8540245446        1.1939932856        0.8859743433
 H         -3.7349792245        2.8376715783        2.3739531438
 H         -1.3803709230        3.4488669486        1.9856470492
 H          0.5657964921        3.3135143011        0.7809020794
 C          0.4949610297        3.1759767129       -1.3480683204
 C          0.0821711558        4.5956249662       -1.5881567134
 C          1.5363156433        4.2376384642       -1.5254765768
 H          2.1122120814        4.2475092037       -2.4387627534
 H          2.0983825084        4.5384031726       -0.6530060344
 H         -0.3436113478        4.8535274760       -2.5456798691
 H         -0.3411201545        5.1409699418       -0.7581716742
 H          0.3656927752        2.4705347376       -2.1579410453
