  62
        -98.93537725
 C         -2.5733879643       -0.0035071432       -0.1097939415
 C         -2.4912545618       -1.1352581219       -0.9548533924
 C         -1.9859998131       -2.3813272900       -0.3559624035
 C         -1.6168714912       -2.3762393752        0.9365547750
 C         -0.9820545989       -3.4963136840        1.7133051433
 C          0.5513169350       -3.3754635553        1.6577757498
 C          1.2078473755       -4.0909627327        0.4787008269
 H          2.2715907566       -3.8430015290        0.5025284417
 H          1.1142773568       -5.1715863990        0.6107561426
 C          0.6509709753       -3.7114516329       -0.8958738760
 H          0.5064237086       -2.6289043461       -0.9416259408
 H          1.4050473187       -3.9607731294       -1.6458715821
 C         -0.6542246973       -4.4447345726       -1.2410955683
 H         -0.5607447354       -4.8990850344       -2.2298386332
 H         -0.7975230858       -5.2633130576       -0.5355774838
 C         -1.9151731480       -3.5691052543       -1.2768990019
 H         -2.7921480019       -4.2009286580       -1.0979241695
 H         -2.0333435429       -3.1462266838       -2.2798083597
 H          0.8046369041       -2.3125902062        1.6165886043
 H          0.9708679484       -3.7825131101        2.5802737104
 H         -1.3170397390       -4.4622933175        1.3462579621
 H         -1.3048811244       -3.3798443860        2.7499180986
 O         -1.7278418179       -1.2726688536        1.7224810838
 C         -2.1526355928       -0.0555050154        1.2209707204
 O         -2.1256252892        0.8703530025        2.0535793438
 O         -2.8085370799       -1.0988588684       -2.1773524797
 C         -2.9370213437        1.3268406316       -0.7472629330
 C         -1.8514786035        2.3280438557       -0.4329155288
 C         -2.0768903936        3.6331544715       -0.0211793882
 C         -1.0083390275        4.4723434291        0.2538977230
 C          0.2951415274        4.0248613680        0.1574969951
 C          0.5305832552        2.7128443948       -0.2451262513
 C         -0.5361934381        1.8995164957       -0.5763533479
 H         -0.3421831032        0.8940267257       -0.9233369084
 N          1.8388446378        2.1935834681       -0.2674052238
 S          2.1179244329        0.5581336338       -0.4936945243
 O          1.9141843844        0.1760972657       -1.8769957112
 O          1.3789883097       -0.1793898459        0.4977365421
 C          3.8588537957        0.5049995221       -0.1147314813
 C          4.2413852713        0.4866803152        1.2129992863
 C          5.5920358443        0.4786198285        1.5223459165
 C          6.5335989355        0.4899725068        0.5037678837
 C          6.1353112089        0.5048377183       -0.8242684205
 C          4.7854241949        0.5134219927       -1.1396288127
 H          4.4285490757        0.5147880491       -2.1569961869
 H          6.8693412167        0.5094695220       -1.6138373888
 H          7.5842375718        0.4838742440        0.7472979456
 H          5.9044370669        0.4634585606        2.5540751245
 H          3.4726410909        0.4702309837        1.9684783309
 H          2.5392572257        2.7927403959       -0.6766840093
 H          1.1237264445        4.6704507653        0.4018957298
 H         -1.1980426987        5.4876373138        0.5679069414
 H         -3.0856683686        3.9920645608        0.1013098658
 H         -2.8953492757        1.1215471894       -1.8317294848
 C         -4.3433097659        1.8300256468       -0.4609394114
 C         -5.4143080603        0.9026985392        0.0285101828
 C         -4.8784798946        1.9707663784        0.9314929810
 H         -5.5120426279        2.8174973097        1.1521231926
 H         -4.2296679216        1.6807405917        1.7423129713
 H         -6.4110553132        1.0133281744       -0.3717962997
 H         -5.1334501781       -0.1215237866        0.2288368751
 H         -4.6583066415        2.5813982765       -1.1788691126
