  62
        -98.94709871
 C          1.2201952647        0.7862190610        0.6743831346
 C          2.0282464184        0.7220315365       -0.4857477931
 C          2.7277903518       -0.5496062024       -0.7057277756
 C          2.5154026756       -1.5844592494        0.1263496488
 C          3.1261368373       -2.9547886946        0.0101656840
 C          4.5310024752       -3.0678420101        0.6185351702
 C          5.6429130432       -2.3843945002       -0.1783543666
 H          6.5920301946       -2.7254747215        0.2397573985
 H          5.6037378141       -2.7208164180       -1.2148771037
 C          5.6052115399       -0.8505836196       -0.1309492094
 H          4.9747272668       -0.5274359472        0.7004375363
 H          6.6100055257       -0.4673109910        0.0600185752
 C          5.1044934400       -0.1894864769       -1.4151277367
 H          5.7990428322       -0.4002308296       -2.2313084569
 H          5.0852148992        0.8920513373       -1.2593545507
 C          3.6986875336       -0.6299250466       -1.8448200328
 H          3.3472019763        0.0488077383       -2.6261624385
 H          3.7265186688       -1.6413693762       -2.2505743061
 H          4.5056523141       -2.6607122768        1.6319208341
 H          4.7679559925       -4.1316689291        0.6931116798
 H          2.4610845008       -3.6371403962        0.5443296633
 H          3.1538912170       -3.2532952635       -1.0384032087
 O          1.6775014349       -1.5042004832        1.1935457062
 C          1.0208211746       -0.3214148559        1.4967459482
 O          0.2938178007       -0.3862479489        2.5097041770
 H         -1.3382562368        0.3400788422        0.1114339220
 C         -1.3852292786        1.2522184327       -0.4630348301
 C         -0.5326717599        2.2987996096       -0.1317168658
 C         -0.6027185166        3.4736762824       -0.8661018579
 C         -1.4790224361        3.5725403995       -1.9341514900
 C         -2.2870262926        2.5102884912       -2.2936094381
 C         -2.2385020951        1.3348926548       -1.5492159163
 N         -3.0612387105        0.2500308413       -1.8718373830
 S         -2.7519281881       -1.3127217494       -1.3747327209
 O         -1.3410313013       -1.6226688873       -1.3503991637
 O         -3.5619823478       -2.1217753686       -2.2622416222
 C         -3.4625959333       -1.3691149775        0.2562205785
 C         -2.6863219494       -1.6640801000        1.3574635310
 C         -3.2797347325       -1.6841005695        2.6104676044
 C         -4.6333822935       -1.4166944296        2.7385390776
 C         -5.4032161683       -1.1307521819        1.6203389540
 C         -4.8146355892       -1.1051223728        0.3673317931
 H         -5.3765652794       -0.8930984462       -0.5268810251
 H         -6.4565176019       -0.9255035757        1.7234426983
 H         -5.0891674572       -1.4317675614        3.7160433719
 H         -2.6705754484       -1.8977583437        3.4742399605
 H         -1.6315342920       -1.8576431660        1.2326715007
 H         -3.5345194933        0.3022155623       -2.7605390290
 H         -2.9472496942        2.5822269622       -3.1442330028
 H         -1.5192635043        4.4864512803       -2.5073373488
 H          0.0396215326        4.3025177766       -0.6186852177
 C          0.4435175112        2.0535612990        0.9938764147
 H         -0.1308272456        1.8377458492        1.9064099973
 C          1.3799307522        3.2110472809        1.2629818761
 C          0.9262267551        4.3589701053        2.1124327676
 C          1.9366493227        3.3877092310        2.6425851588
 H          2.9611939971        3.7118456072        2.7472130120
 H          1.6234168284        2.6819176029        3.3983525164
 H         -0.0748865093        4.3172810112        2.5138386468
 H          1.2587220658        5.3534683989        1.8563752404
 H          2.0391209485        3.4180464177        0.4282241478
 O          2.1649090006        1.6745118255       -1.2978477371
