  62
        -98.94107213
 C         -2.0942078300       -0.8139826198       -0.3840260207
 C         -3.0310681300       -0.6110759693        0.6643738892
 C         -3.5314051297        0.7566234609        0.8444252288
 C         -3.0644118695        1.7338535706        0.0467172285
 C         -3.5084939892        3.1665803007        0.0901129481
 C         -4.6857573991        3.4147625807       -0.8632309820
 C         -5.8209774994        2.4016219509       -0.7168002117
 H         -6.6092912993        2.6933865109       -1.4139230019
 H         -5.4625052796        1.4182101408       -1.0291919815
 C         -6.4024417694        2.3010450715        0.7002816183
 H         -6.1236564292        3.1824352216        1.2788433880
 H         -7.4921642994        2.2894933217        0.6317170682
 C         -5.9913698197        1.0422509616        1.4664468786
 H         -6.6234354698        0.9633928120        2.3548949886
 H         -6.1812121399        0.1598634515        0.8503384989
 C         -4.5328412697        0.9942170414        1.9396084687
 H         -4.4323291799        0.1477667416        2.6252866189
 H         -4.2924108396        1.9080848915        2.4871492584
 H         -5.0676271389        4.4214613108       -0.6843037523
 H         -4.3151055391        3.3685688003       -1.8897775820
 H         -2.6679570791        3.7948008304       -0.2099590120
 H         -3.7917423592        3.4209549110        1.1097343180
 O         -2.1550598295        1.5099145501       -0.9326861614
 C         -1.6455282398        0.2430581199       -1.1758082510
 O         -0.8220715898        0.2191982095       -2.1139406010
 O         -3.4334270303       -1.5403803090        1.4144681494
 C         -1.5677888903       -2.2308709999       -0.5563416703
 C         -0.2277392604       -2.3637914800        0.1277185598
 C         -0.0726678106       -3.1621719297        1.2546092600
 C          1.1457280794       -3.2311334798        1.9084990300
 C          2.2310404495       -2.5001423102        1.4589664899
 C          2.0824391197       -1.6963512404        0.3368482796
 C          0.8676388698       -1.6438193104       -0.3280068104
 H          0.7576747999       -1.0028489606       -1.1903183806
 N          3.1760645999       -0.9134035208       -0.1153871805
 S          3.5477272602        0.3594746094        0.9387573791
 O          4.0375540500       -0.2044149603        2.1706917093
 O          2.4187682904        1.2594427497        1.0576123488
 C          4.8794795204        1.1527216489        0.0604789789
 C          6.1709215503        0.7007733487        0.2512643991
 C          7.2004029904        1.2986592382       -0.4580241710
 C          6.9224087807        2.3299965481       -1.3426598113
 C          5.6204930508        2.7718937583       -1.5241926015
 C          4.5862329506        2.1778606887       -0.8181697214
 H          3.5602682607        2.4954401389       -0.9213924815
 H          5.4060852509        3.5748368881       -2.2111552017
 H          7.7247976308        2.7949051977       -1.8933911114
 H          8.2141968003        0.9596418081       -0.3189262309
 H          6.3382547201       -0.0980128712        0.9544033793
 H          2.9560150700       -0.5007071810       -1.0148803107
 H          3.1762901395       -2.5199030302        1.9757509099
 H          1.2492522892       -3.8541895996        2.7840085902
 H         -0.9227347807       -3.7123316394        1.6315529501
 H         -2.2812766805       -2.8693354696       -0.0182974102
 C         -1.5061090504       -2.6897575103       -1.9993029402
 C         -1.4770488007       -4.1591126304       -2.2913013598
 C         -2.7019110205       -3.3559244003       -2.6080197900
 H         -2.9341771004       -3.1499703505       -3.6420348701
 H         -3.5733364306       -3.4863846099       -1.9829746000
 H         -0.8654024707       -4.5089111108       -3.1084929697
 H         -1.5184624709       -4.8357138202       -1.4512553496
 H         -0.9251217502       -2.0367013706       -2.6369006304
