  62
        -98.94387609
 C         -1.7988091799       -1.1863320862        0.3551891671
 C         -2.0031757342       -0.2348055289       -0.6727151628
 C         -3.3999476085       -0.0326806729       -1.0870411068
 C         -4.3736758179       -0.7543788873       -0.5027062724
 C         -5.8397187568       -0.6081367155       -0.7886498720
 C         -6.4901378257        0.4113647901        0.1570249573
 C         -5.7318506745        1.7352481565        0.2539934179
 H         -6.2977433442        2.3862243103        0.9239153749
 H         -4.7609714155        1.5582421787        0.7226472944
 C         -5.5202948184        2.4455037334       -1.0903154460
 H         -6.2138850120        2.0487858868       -1.8325766126
 H         -5.7496479244        3.5059767640       -0.9663829719
 C         -4.0931541530        2.3599503477       -1.6351798061
 H         -3.3843503336        2.6688682285       -0.8621143339
 H         -4.0014238656        3.0690113530       -2.4624843667
 C         -3.6606817029        0.9853827077       -2.1611101685
 H         -4.3994484116        0.6150435504       -2.8749304593
 H         -2.7096006046        1.1163930141       -2.6860606076
 H         -7.5095092365        0.5986049155       -0.1851731454
 H         -6.5419035351       -0.0271011646        1.1562388463
 H         -5.9736197937       -0.2974099036       -1.8228661924
 H         -6.3167298973       -1.5790450775       -0.6451395556
 O         -4.1341649119       -1.6766228300        0.4642165663
 C         -2.8486484938       -1.9048168114        0.9272495171
 O         -2.7717084310       -2.7562891464        1.8358755719
 O         -1.0712032323        0.4125839763       -1.2177966195
 C         -0.3978383195       -1.4516801378        0.8767867349
 C          0.2041101288       -0.1764690554        1.4153046830
 C         -0.5258239956        0.5675298551        2.3396597784
 C         -0.0118422039        1.7323947505        2.8736065027
 C          1.2415255741        2.1823388555        2.4956812597
 C          1.9820561845        1.4458989279        1.5802550060
 C          1.4651365738        0.2693792185        1.0526206217
 H          2.0553382531       -0.2867515294        0.3446923201
 N          3.2748307798        1.8515481081        1.2144597341
 S          3.7569175673        1.7986906077       -0.3904578811
 O          4.9090740197        2.6757278711       -0.4380039136
 O          2.6784813356        2.1233790865       -1.2925821168
 C          4.3106186650        0.1267568921       -0.6453508174
 C          5.2247378403       -0.4076142599        0.2412868541
 C          5.6924252605       -1.6937657361        0.0248812633
 C          5.2470638032       -2.4162898763       -1.0719376033
 C          4.3308271944       -1.8638688740       -1.9543899666
 C          3.8558507274       -0.5789215509       -1.7413647355
 H          3.1329764323       -0.1140678286       -2.3936655803
 H          3.9830065616       -2.4271329727       -2.8060510409
 H          5.6128503198       -3.4170711036       -1.2400462968
 H          6.4025995284       -2.1288812776        0.7092525203
 H          5.5512310485        0.1877711926        1.0772869839
 H          3.5830062389        2.7082871696        1.6520324595
 H          1.6429396904        3.0962433620        2.9070788664
 H         -0.5917647728        2.2994820362        3.5864412404
 H         -1.5067441681        0.2166650306        2.6319171387
 H         -0.5192516306       -2.1482117888        1.7196601356
 C          0.4479026641       -2.1217113773       -0.1853488128
 C          1.5580569739       -3.0441958014        0.2170732978
 C          0.3069451224       -3.5985594933       -0.3935189032
 H          0.3486724437       -3.9825189929       -1.4016020780
 H         -0.3892075025       -4.1234631374        0.2446843981
 H          2.4634228132       -3.0494186313       -0.3704810693
 H          1.7160656906       -3.1994535218        1.2735143296
 H          0.5840098703       -1.5020519226       -1.0646727632
