  62
        -98.94468712
 C         -2.0122465796       -0.7524744058        0.5614967413
 C         -1.9592961783       -0.0508666150       -0.6670405638
 C         -2.0024308695        1.4118370228       -0.5671637432
 C         -2.0281010325        1.9989655214        0.6425624304
 C         -2.0219768599        3.4802739090        0.9086772561
 C         -3.4061526125        4.1392080462        0.8287836950
 C         -3.9783162434        4.2831303558       -0.5819716191
 H         -3.2414156335        4.7686518844       -1.2223142328
 H         -4.8401643527        4.9494999238       -0.5110373128
 C         -4.4269469420        2.9615571931       -1.2209427384
 H         -5.4105951802        3.0929059362       -1.6771177085
 H         -4.5311843321        2.1992025003       -0.4455622194
 C         -3.4900563168        2.4335449211       -2.3074008247
 H         -3.4748418879        3.1293770312       -3.1490705356
 H         -3.8830521474        1.4787446714       -2.6652844964
 C         -2.0472249700        2.2040383189       -1.8383264356
 H         -1.5336709458        3.1567008832       -1.7087196278
 H         -1.5193513083        1.6267564859       -2.6014688870
 H         -3.3163808764        5.1365022644        1.2655033414
 H         -4.1001659370        3.5659876978        1.4476896935
 H         -1.6340961921        3.6099276374        1.9216521050
 H         -1.3394483305        3.9698561513        0.2130117784
 O         -2.0441620129        1.2888134387        1.8035341307
 C         -2.0389056098       -0.0965467613        1.7902940902
 O         -2.0622332415       -0.6221012960        2.9240205460
 H          0.4692331383       -1.1835570858        0.9554016274
 C          0.5182980854       -1.9782246308        0.2236882551
 C         -0.6340675691       -2.6815696483       -0.1038352951
 C         -0.5414686327       -3.7122247482       -1.0296834520
 C          0.6697816427       -3.9984899580       -1.6363920354
 C          1.8022317360       -3.2606192947       -1.3464614185
 C          1.7235455525       -2.2410604774       -0.4035447710
 N          2.8556702137       -1.4800145964       -0.0616685886
 S          2.6261683975        0.1391567502        0.3624775035
 O          2.2797465037        0.2061295699        1.7615119516
 O          1.7181352540        0.7839205610       -0.5587531412
 C          4.2831549304        0.7585287139        0.1308242421
 C          5.2162403829        0.5503398283        1.1290529870
 C          6.5132200706        0.9997004002        0.9379922579
 C          6.8540879192        1.6452888590       -0.2414665207
 C          5.9066125566        1.8486921095       -1.2334569538
 C          4.6078427734        1.4004879858       -1.0492438069
 H          3.8347788925        1.5423500698       -1.7875728419
 H          6.1730773524        2.3539206666       -2.1477742330
 H          7.8638437752        1.9948813416       -0.3872671641
 H          7.2514795458        0.8457027401        1.7082657160
 H          4.9007451546        0.0525128892        2.0311409732
 H          3.6124626455       -1.5854490473       -0.7239606249
 H          2.7383870056       -3.4675444267       -1.8422107596
 H          0.7273346427       -4.7964661129       -2.3610985424
 H         -1.4198386496       -4.2806928186       -1.2881311112
 C         -1.9230705111       -2.2682421706        0.5662202917
 H         -1.8744755378       -2.5688391748        1.6237068162
 C         -3.1570355106       -2.8796931604       -0.0635019460
 C         -3.6412161495       -4.2282364994        0.3751545108
 C         -4.4042188070       -2.9969548164        0.7582999726
 H         -5.3547637119       -2.8072171970        0.2829207712
 H         -4.3532209893       -2.6583621520        1.7832354032
 H         -3.0795338110       -4.7344108938        1.1456682258
 H         -4.0732066412       -4.8863881416       -0.3634864817
 H         -3.2676504014       -2.6062359204       -1.1064989344
 O         -1.8820885345       -0.6165303747       -1.7893280825
