  62
        -98.93229858
 C          2.4763087337        0.8314490982        0.0564874209
 C          2.9217503412       -0.2959412461        0.7886980350
 C          4.0885498004       -1.0310230752        0.2660261924
 C          4.6570359416       -0.6041286493       -0.8766952918
 C          5.8689682112       -1.1568471610       -1.5780495416
 C          7.1840733398       -0.7603676745       -0.8868496430
 C          7.1687550881       -0.8664807309        0.6360139066
 H          8.1079145873       -0.4478164768        1.0074730515
 H          6.3606283865       -0.2476181531        1.0304839224
 C          7.0389368464       -2.2836225487        1.1891614463
 H          7.1206159304       -2.2160201541        2.2771069718
 H          7.8767913940       -2.8858191365        0.8305229089
 C          5.7379234179       -3.0159572866        0.8551236133
 H          5.6890804209       -3.9005064211        1.4970377841
 H          5.7452064618       -3.3786105803       -0.1691441601
 C          4.4669177910       -2.2154166142        1.1223189366
 H          3.6093419669       -2.8978102267        1.0770672548
 H          4.4856038095       -1.8463983207        2.1542010687
 H          7.3995974892        0.2794810115       -1.1444141300
 H          7.9866890622       -1.3805813867       -1.2892999163
 H          5.8662777528       -0.7371914042       -2.5863986611
 H          5.7872194053       -2.2359357063       -1.6684735752
 O          4.1911793434        0.4812912280       -1.5546733868
 C          3.1011938608        1.2230334349       -1.1278154320
 O          2.8151191305        2.1711464204       -1.8806653684
 O          2.3704603071       -0.6731647553        1.8592793329
 C          1.2852477420        1.5817087030        0.6239855230
 C         -0.0073140311        1.0522932420        0.0573824728
 C         -0.2099876585        0.9540981024       -1.3157494410
 C         -1.4091690583        0.4775190545       -1.8132422483
 C         -2.4243266282        0.0841511378       -0.9583555965
 C         -2.2312654553        0.1730630719        0.4132910639
 C         -1.0275121828        0.6576840474        0.9102339781
 H         -0.8764424950        0.7152946819        1.9800195966
 N         -3.2508157928       -0.2421669417        1.2848516114
 S         -4.8075402084        0.3343965084        1.0333433115
 O         -4.7898593858        1.6334218934        0.4024475978
 O         -5.4506384413        0.2546230605        2.3263579165
 C         -5.5423111964       -0.8666991835       -0.0559221869
 C         -6.0966133587       -0.4600713682       -1.2537743351
 C         -6.6738931669       -1.4102174757       -2.0818571673
 C         -6.6872127836       -2.7426190513       -1.6988177143
 C         -6.1284712909       -3.1342166036       -0.4911625101
 C         -5.5510620316       -2.1893070713        0.3417848963
 H         -5.1105115907       -2.4524948639        1.2889554451
 H         -6.1409223454       -4.1713574330       -0.1969466494
 H         -7.1359171123       -3.4803557287       -2.3451735958
 H         -7.1092893767       -1.1076484903       -3.0206771742
 H         -6.0588731103        0.5861728831       -1.5127557019
 H         -3.0004066492       -0.1954950845        2.2619406477
 H         -3.3586630301       -0.2893792751       -1.3441784377
 H         -1.5548173388        0.4093651235       -2.8807297471
 H          0.5800910371        1.2605993926       -1.9847319815
 H          1.2938816401        1.3400119879        1.6990876478
 C          1.4118828515        3.0940448153        0.5042222402
 C          0.5675421341        3.9362137836       -0.3991569882
 C          0.3497238442        3.9829730888        1.0816246639
 H          0.6497688002        4.8656469752        1.6257936876
 H         -0.5414088552        3.5085773185        1.4663294496
 H          1.0418726907        4.7752233129       -0.8846574836
 H         -0.1790841647        3.4500749241       -1.0067339681
 H          2.4385715245        3.4212241633        0.6347666839
