  62
        -98.93682532
 C          2.4261694402        1.1768041408        0.1465013790
 C          2.4341775200       -0.0394885397       -0.5811879802
 C          3.7636106599       -0.5680992201       -0.9218662399
 C          4.8710163700        0.0974967100       -0.5506173705
 C          6.2903448399       -0.3076478304       -0.8424174603
 C          6.8642194798       -1.3256565299        0.1528363504
 C          6.3093263396       -2.7451325299        0.0262509213
 H          6.3924262195       -3.0755479006       -1.0095293085
 H          6.9496714295       -3.3935011496        0.6275795917
 C          4.8591174396       -2.9040638893        0.5044202215
 H          4.5830038997       -2.0475060889        1.1237659410
 H          4.7781924995       -3.7926786989        1.1344406921
 C          3.8330074495       -3.0510610399       -0.6192502283
 H          4.0147918693       -3.9807442803       -1.1630631177
 H          2.8380341295       -3.1106677694       -0.1703633082
 C          3.8275472196       -1.8911666306       -1.6232855591
 H          4.7076627696       -1.9417072411       -2.2639691691
 H          2.9336895795       -1.9810620508       -2.2456014090
 H          6.6928384099       -0.9566793392        1.1666974501
 H          7.9439507398       -1.3649648601       -0.0084245297
 H          6.3564153398       -0.7082089411       -1.8543241400
 H          6.8908297600        0.6029655595       -0.7882557609
 O          4.8208321502        1.2635408705        0.1476788588
 C          3.6089599103        1.8104711709        0.5367936085
 O          3.7156785005        2.8484257213        1.2206390578
 H         -1.3323847899        0.9492869711       -0.3206283706
 C         -1.0151431999        0.4664837317        0.5884709297
 C          0.2013188002        0.7824143318        1.1702108594
 C          0.5853054002        0.1059783726        2.3255893198
 C         -0.2282071000       -0.8617444570        2.8814484405
 C         -1.4494715900       -1.1646301271        2.3056607008
 C         -1.8377291900       -0.5013529378        1.1479357504
 N         -3.0546348901       -0.8131371281        0.5214803406
 S         -3.9102254300        0.4158254916       -0.2526731201
 O         -3.3935031200        0.5928344306       -1.5860761003
 O         -3.9427622697        1.5982464721        0.5800077691
 C         -5.5279004901       -0.3314269982       -0.3331203395
 C         -5.7607463403       -1.2927200489       -1.2989426389
 C         -7.0026352504       -1.9053173387       -1.3485766484
 C         -7.9858889903       -1.5486470679       -0.4373256386
 C         -7.7384965701       -0.5805284573        0.5241397908
 C         -6.4975632800        0.0347578925        0.5808079303
 H         -6.2614712598        0.7962688529        1.3065872298
 H         -8.5059220500       -0.3031136168        1.2286266106
 H         -8.9517582404       -2.0268247078       -0.4787010982
 H         -7.1991850905       -2.6566007992       -2.0963843179
 H         -4.9692278304       -1.5304883294       -1.9905469688
 H         -3.6574460802       -1.3898461776        1.0919081811
 H         -2.0887360501       -1.9183900268        2.7399840413
 H          0.0858388100       -1.3798090064        3.7753197308
 H          1.5388172502        0.3473761427        2.7770284496
 C          1.1312200603        1.8265446113        0.6034719886
 H          1.4237815305        2.4974960318        1.4290697982
 C          0.4665488604        2.7013310307       -0.4484658819
 C          1.2820319705        3.4731048900       -1.4411820225
 C          0.4302575502        2.3290190598       -1.8985580917
 H         -0.4710063898        2.5416986296       -2.4558495417
 H          0.9118361501        1.4094299895       -2.1911568911
 H          0.9737183806        4.4779194098       -1.6876694131
 H          2.3536338004        3.3366445198       -1.4195373024
 H         -0.4147042395        3.2023905111       -0.0562585622
 O          1.4017455998       -0.6633365297       -0.9362586797
