  62
        -98.94014575
 C          2.4343195157        0.9667414758        0.0335565136
 C          3.6862764549        0.9027311355        0.6991186457
 C          4.7133307083        0.0650938194        0.0712410680
 C          4.4300705752       -0.5944607242       -1.0662696426
 C          5.3762170206       -1.4701189911       -1.8421024356
 C          5.4645889462       -2.9103941772       -1.3191563060
 C          6.2152892095       -3.0775988108        0.0025972148
 H          6.3912008810       -4.1466199405        0.1379118411
 H          7.1901172741       -2.5943880912       -0.0705715489
 C          5.4639411522       -2.5424252819        1.2296754408
 H          4.4080401629       -2.4109783576        0.9817061792
 H          5.5135043430       -3.2774422883        2.0362260384
 C          6.0098390103       -1.2261077173        1.7832000792
 H          5.3822545034       -0.9212372112        2.6245458722
 H          7.0242797224       -1.3785957067        2.1583559684
 C          6.0326223822       -0.0751784481        0.7688669337
 H          6.2240116670        0.8546661367        1.3102142652
 H          6.8316558893       -0.2284489535        0.0436785180
 H          4.4519273574       -3.3070385564       -1.2160491260
 H          5.9773987602       -3.5021857623       -2.0809153152
 H          5.0024407855       -1.4988291931       -2.8678978924
 H          6.3701332881       -1.0215919892       -1.8467570845
 O          3.2142609610       -0.5213250712       -1.6666263093
 C          2.1795932594        0.2378937785       -1.1295701798
 O          1.1235614387        0.1718810669       -1.7844015627
 O          3.9334133645        1.5192349610        1.7695431761
 C          1.3498231445        1.8152580574        0.6740301936
 C          0.0671545680        1.0312648935        0.7812328761
 C         -0.0141446840       -0.0043238615        1.7079571970
 C         -1.1672140577       -0.7557607842        1.8294217689
 C         -2.2636022484       -0.4941959712        1.0263689799
 C         -2.1927661192        0.5344940018        0.0976131260
 C         -1.0359837974        1.2954541588       -0.0141704197
 H         -0.9873465628        2.0798501380       -0.7535787172
 N         -3.2929890478        0.7896880224       -0.7363932605
 S         -4.8178300308        0.9164467907       -0.0563535888
 O         -5.5826515354        1.7190038452       -0.9861388837
 O         -4.7525941351        1.4008049417        1.3034386375
 C         -5.4445717476       -0.7499457601       -0.0807031159
 C         -5.9486222043       -1.3125191056        1.0754738951
 C         -6.4475248616       -2.6051137991        1.0298024939
 C         -6.4346560404       -3.3077802814       -0.1652271709
 C         -5.9262009178       -2.7277737661       -1.3180428263
 C         -5.4270134151       -1.4357292150       -1.2793661163
 H         -5.0247796766       -0.9501798823       -2.1529322369
 H         -5.9166190067       -3.2776800598       -2.2453902283
 H         -6.8227602762       -4.3135905996       -0.1988029607
 H         -6.8429012323       -3.0579452333        1.9248468326
 H         -5.9327686334       -0.7304027395        1.9831407962
 H         -3.1300023176        1.5111732097       -1.4229530307
 H         -3.1651925002       -1.0787565026        1.1116232847
 H         -1.2138706638       -1.5555664153        2.5529700798
 H          0.8446879380       -0.2154317809        2.3307328259
 H          1.7196265555        1.9979153915        1.6967087308
 C          1.1624962354        3.1846346867        0.0379814865
 C          2.3338131694        3.9350501736       -0.5196137892
 C          1.2668286828        3.4228151392       -1.4376460295
 H          0.5933510365        4.1386240084       -1.8872125755
 H          1.4904845118        2.5787710642       -2.0708021851
 H          2.3965800841        4.9981504563       -0.3424985602
 H          3.2907829873        3.4339318025       -0.5199999693
 H          0.4229885790        3.7748023282        0.5721698495
