  62
        -98.93828010
 C          2.2075412158        1.0385922427        0.5637082692
 C          2.3443975043        0.1716127839       -0.5460424682
 C          3.1350397626       -1.0521257785       -0.3222158693
 C          3.6431719653       -1.2980871116        0.8973389611
 C          4.4408796790       -2.4918479103        1.3601456726
 C          5.5354482225       -3.0201127203        0.4227114729
 C          6.2382520393       -1.9496042265       -0.4248465258
 H          5.9737591895       -0.9539404731       -0.0649151640
 H          7.3181565213       -2.0611666396       -0.3118597209
 C          5.9088595561       -2.0572220216       -1.9157425672
 H          6.6874225127       -1.5442349573       -2.4852959686
 H          5.9328447862       -3.1102518946       -2.2044405856
 C          4.5692653480       -1.4542677073       -2.3371718108
 H          4.4048763636       -1.6996773418       -3.3890946423
 H          4.6142995242       -0.3642381840       -2.2657779708
 C          3.3490920703       -1.9221675586       -1.5270502686
 H          2.4593463459       -1.7953062968       -2.1505607744
 H          3.4331345004       -2.9721736707       -1.2567051288
 H          6.2695623623       -3.5270402449        1.0512634533
 H          5.1142947044       -3.7761400847       -0.2385490974
 H          4.8886384000       -2.1829669378        2.3078769384
 H          3.7403901572       -3.3019377112        1.5844926262
 O          3.4514701040       -0.4515559501        1.9497571911
 C          2.7383252253        0.7274482483        1.8132720395
 O          2.6414393167        1.3954424559        2.8635875687
 O          1.8282812191        0.4008775362       -1.6701361926
 C          1.4242562380        2.3317009177        0.4239214150
 C          0.0022051050        2.0271677293        0.0174722065
 C         -0.6561968561        2.6731066657       -1.0200233592
 C         -1.9569997066        2.3284659070       -1.3456334694
 C         -2.6303638098        1.3463046049       -0.6433588869
 C         -1.9833770821        0.6983089466        0.4010463160
 C         -0.6815128130        1.0457475032        0.7249841806
 H         -0.1763477359        0.5364208690        1.5377268521
 N         -2.6638547838       -0.2911208576        1.1343842098
 S         -3.3973743092       -1.5388834677        0.2798851112
 O         -3.4517606483       -2.6477306582        1.2084892000
 O         -2.7343553921       -1.7865002785       -0.9792318117
 C         -5.0507672507       -0.9410454646       -0.0028438203
 C         -5.8065245786       -0.5750511997        1.0938223081
 C         -7.0974779594       -0.1135937306        0.8925699304
 C         -7.6090630580       -0.0297141288       -0.3940021780
 C         -6.8388216018       -0.4044924589       -1.4841883119
 C         -5.5459383007       -0.8658298890       -1.2898947351
 H         -4.9078095612       -1.1635774377       -2.1067861353
 H         -7.2382027759       -0.3391024187       -2.4835258223
 H         -8.6141697501        0.3299018579       -0.5479143974
 H         -7.6994361365        0.1784073587        1.7379216359
 H         -5.3726480903       -0.6602259219        2.0761067551
 H         -2.1218469597       -0.6661067466        1.8997879322
 H         -3.6409231294        1.0717379372       -0.8979402501
 H         -2.4535855035        2.8328285171       -2.1604341319
 H         -0.1477836685        3.4386397272       -1.5824295640
 H          1.4015373294        2.7824247428        1.4271441749
 C          2.1379905933        3.2765547269       -0.5199509977
 C          1.9888168590        4.7587970470       -0.3599338895
 C          3.2807456541        4.0921045248        0.0030330225
 H          4.1394167471        4.2448957369       -0.6334488521
 H          3.5278454768        3.9844923444        1.0495097098
 H          1.9634913323        5.3735097951       -1.2469463130
 H          1.3603532996        5.1140409291        0.4425447498
 H          2.2286051804        2.8730290142       -1.5218606532
