  62
        -98.94792413
 C         -0.9546981627       -1.0319609732        0.7120495063
 C         -1.5323316825       -0.8978717471       -0.5734871580
 C         -2.2386302265        0.3643417513       -0.8239854000
 C         -2.2575539548        1.3204260491        0.1215203562
 C         -2.8992263092        2.6764948904       -0.0019986795
 C         -4.4047594407        2.6878913922        0.2967720211
 C         -5.2876368430        2.0512106360       -0.7770796069
 H         -6.3194772689        2.3230666025       -0.5459248905
 H         -5.0463142404        2.4849006372       -1.7481271394
 C         -5.1861338013        0.5215456704       -0.8552469169
 H         -4.7318054416        0.1390235415        0.0614373990
 H         -6.1886176971        0.0928354298       -0.9201903547
 C         -4.3924151730       -0.0006418275       -2.0530266197
 H         -4.9084911986        0.2625388080       -2.9790663041
 H         -4.3505396368       -1.0909025624       -1.9889329524
 C         -2.9524068987        0.5233935761       -2.1314539771
 H         -2.4074608946       -0.0627542676       -2.8760504364
 H         -2.9453522966        1.5677576820       -2.4447728690
 H         -4.5741050843        2.1857643724        1.2519031129
 H         -4.7053824508        3.7319193421        0.4109457597
 H         -2.4011635588        3.3248600838        0.7224487166
 H         -2.7197307533        3.0742186944       -1.0018655780
 O         -1.6536533225        1.1687095208        1.3308068015
 C         -0.9905150754       -0.0052349500        1.6538974010
 O         -0.4763471427       -0.0082738628        2.7907682543
 H          1.4584621809       -0.3444907844        0.3107210384
 C          1.7313130615       -1.2753274550       -0.1650942881
 C          0.9932385610       -2.4188870034        0.1124544961
 C          1.3661082058       -3.6116315394       -0.4925592676
 C          2.4318748157       -3.6417116073       -1.3760158140
 C          3.1342075081       -2.4909218951       -1.6836958064
 C          2.7763713504       -1.2945075401       -1.0722381478
 N          3.4654660958       -0.1011113640       -1.3378435258
 S          2.6149345121        1.3399605917       -1.3949250288
 O          1.2882632992        1.1687879197       -1.9398920837
 O          3.4866647525        2.2360559149       -2.1279317375
 C          2.5284085329        1.8842065537        0.2968118947
 C          1.3528490487        2.4425324072        0.7566629159
 C          1.2857166403        2.8841902331        2.0678218548
 C          2.3945495738        2.7650728993        2.8905469579
 C          3.5716080421        2.2104744862        2.4111529969
 C          3.6444259934        1.7658525850        1.1009130508
 H          4.5392896398        1.3241293951        0.6952962631
 H          4.4302304843        2.1189971895        3.0568194908
 H          2.3359227997        3.1024690683        3.9132537769
 H          0.3651927437        3.3013644826        2.4435163551
 H          0.5084737754        2.4988664248        0.0862602761
 H          4.1597349456       -0.1591217083       -2.0688164270
 H          3.9479405317       -2.5130653498       -2.3924582064
 H          2.7088417111       -4.5733046869       -1.8458779088
 H          0.8163443170       -4.5145460124       -0.2831021407
 C         -0.1719126399       -2.2845555016        1.0636582443
 H          0.2294593438       -2.1193817410        2.0745524074
 C         -1.0789233730       -3.4965575584        1.0883348803
 C         -0.7705386109       -4.6521447703        1.9911330096
 C         -1.9205650065       -3.7437511123        2.3030212909
 H         -2.9254460769       -4.1145637768        2.1675267226
 H         -1.8183977784       -3.0500497384        3.1250621899
 H         -0.9887438156       -5.6507535795        1.6437537108
 H          0.1109474995       -4.5817059053        2.6101853924
 H         -1.5225430504       -3.7029999987        0.1211632866
 O         -1.4656678558       -1.7844133186       -1.4646746801
