  62
        -98.93378361
 C         -1.7789741979       -0.7036251960        0.9939308710
 C         -2.0439491254       -0.2739495694       -0.3288883457
 C         -3.4474634024       -0.3682418964       -0.7737296947
 C         -4.3826750626       -0.8411915721        0.0663800353
 C         -5.8519330864       -1.0608709187       -0.1931814099
 C         -6.6114263143        0.0490645909       -0.9342288680
 C         -6.0985203109        1.4734103185       -0.6762042585
 H         -6.9427128636        2.1097642278       -0.4037759261
 H         -5.4047843717        1.4759835747        0.1664158529
 C         -5.4190884899        2.0944493710       -1.8993310515
 H         -5.4164299307        3.1811426956       -1.7847385699
 H         -6.0144291338        1.8614172294       -2.7849593392
 C         -3.9732041936        1.6617270430       -2.1407296466
 H         -3.6540704181        2.0774634077       -3.0994503628
 H         -3.3228725270        2.0925060979       -1.3743313349
 C         -3.7298986958        0.1437736656       -2.1567319089
 H         -4.5598196917       -0.3840211958       -2.6202884113
 H         -2.8249296820       -0.0439781380       -2.7405621028
 H         -7.6555588997       -0.0228061425       -0.6251035115
 H         -6.5879348881       -0.1460980978       -2.0055017111
 H         -5.9644864836       -1.9998342269       -0.7428174637
 H         -6.2947526602       -1.2109576853        0.7943429702
 O         -4.0842401985       -1.2331594202        1.3379855507
 C         -2.7959098759       -1.1546474209        1.8371473817
 O         -2.6870259214       -1.5044311051        3.0297269000
 H          2.0336182201       -0.0927025598        0.3538274192
 C          1.4931775612        0.7945474283        0.6357166764
 C          0.2550744406        0.6965061864        1.2483526612
 C         -0.4199837377        1.8707749184        1.5750538625
 C          0.1224930970        3.1048000591        1.2780584836
 C          1.3655260438        3.1975233900        0.6755343895
 C          2.0527847724        2.0342048438        0.3576035993
 N          3.3133418001        2.0835899450       -0.2566531762
 S          4.5130302659        1.0384227194        0.2591064564
 O          4.3927101243        0.7461107556        1.6690079199
 O          5.7494872830        1.6684476764       -0.1539151752
 C          4.2820010784       -0.4453843458       -0.6965972814
 C          4.0374520408       -0.3351522210       -2.0509072250
 C          3.8994930406       -1.4916549772       -2.8014439930
 C          4.0151485048       -2.7314501737       -2.1912124501
 C          4.2644206556       -2.8252099279       -0.8304150298
 C          4.4000974156       -1.6719529259       -0.0734881926
 H          4.5838561924       -1.6985747130        0.9889711528
 H          4.3514367805       -3.7900707075       -0.3562171303
 H          3.9065985915       -3.6301558259       -2.7778405577
 H          3.7012323539       -1.4233661672       -3.8589143069
 H          3.9529092764        0.6438621462       -2.4918677194
 H          3.6714898484        3.0128443064       -0.4223535840
 H          1.7953610266        4.1616558469        0.4490493998
 H         -0.4204591855        4.0049105470        1.5256831300
 H         -1.3872643749        1.7995902665        2.0554484140
 C         -0.3851530483       -0.6263766915        1.5917679939
 H         -0.5430074568       -0.6429797734        2.6837774110
 C          0.4987806444       -1.8209644743        1.2639959820
 C         -0.0938511135       -3.1647308938        0.9648282851
 C          0.5868882990       -2.3881156193       -0.1199254291
 H          1.5486512512       -2.7310681939       -0.4722600538
 H         -0.0187175131       -1.9267225583       -0.8831805199
 H         -1.1712198717       -3.2437876503        0.9438510107
 H          0.3992022988       -4.0392084294        1.3619928467
 H          1.4123109123       -1.8202006659        1.8520704054
 O         -1.1646834145        0.1613982527       -1.1146222337
