  62
        -98.93273843
 C          1.1480604039        1.4875528135        0.6647625606
 C          1.6354609499        1.0689785226       -0.5985943427
 C          2.7761945041        0.1282845608       -0.5725530191
 C          3.2099112315       -0.3520769702        0.6057883998
 C          4.3390637179       -1.3249947912        0.7992841637
 C          3.9136226752       -2.7543312681        0.4093979572
 C          4.6543708683       -3.3213697660       -0.8009747640
 H          5.6692353752       -3.5942858953       -0.5042823878
 H          4.1406695636       -4.2375869092       -1.1000003926
 C          4.7521433940       -2.3867550897       -2.0101740791
 H          5.0507758031       -2.9985107759       -2.8640689507
 H          5.5531369525       -1.6629568712       -1.8519658600
 C          3.4686580421       -1.6278497920       -2.3720665366
 H          2.5913295407       -2.1594771643       -2.0030229517
 H          3.3852654083       -1.6038336691       -3.4607183374
 C          3.4313691393       -0.1641779567       -1.8955114151
 H          4.4494345119        0.2371914250       -1.8870058791
 H          2.8576125614        0.4190887384       -2.6226865280
 H          4.0765297375       -3.4256949919        1.2538613474
 H          2.8422857947       -2.7543058364        0.2054898052
 H          5.1941744007       -1.0081891879        0.2051487218
 H          4.6170643219       -1.2863182964        1.8529390017
 O          2.6124649039       -0.0404795786        1.7859871157
 C          1.5973308039        0.8971790096        1.8502600209
 O          1.1762181779        1.1116995886        3.0042537180
 O          1.1790608894        1.4607613768       -1.7014389175
 C          0.0872928405        2.5650352507        0.8275891125
 C         -1.1338026480        2.2582680997       -0.0005844232
 C         -1.3315951697        2.7860776669       -1.2703709835
 C         -2.4460926135        2.4329058136       -2.0108099903
 C         -3.3955220861        1.5683575680       -1.4941219011
 C         -3.2190568563        1.0576217497       -0.2165539238
 C         -2.0905987776        1.3945788365        0.5174806836
 H         -1.9456342278        0.9792816165        1.5075459951
 N         -4.1975602815        0.1760591041        0.3094321377
 S         -4.0908006038       -1.3944888242       -0.2608899284
 O         -4.1512042152       -1.3675438606       -1.6982549451
 O         -5.1252238332       -2.1398776434        0.4181007123
 C         -2.4865156524       -1.9372661097        0.2956348595
 C         -2.3882756857       -2.6043636508        1.5010232113
 C         -1.1326594518       -2.9166312932        1.9950613976
 C         -0.0011210011       -2.5450998047        1.2849115869
 C         -0.1178358343       -1.8784794323        0.0755717936
 C         -1.3705272645       -1.5649790853       -0.4260514527
 H         -1.4880197185       -1.0383384899       -1.3597949357
 H          0.7599561825       -1.5743094352       -0.4736865579
 H          0.9772720908       -2.7680693130        1.6820997828
 H         -1.0356739872       -3.4368745111        2.9343826526
 H         -3.2941422856       -2.8696446291        2.0224839267
 H         -4.2024140822        0.1499436206        1.3203541449
 H         -4.2620677352        1.2718859110       -2.0623216395
 H         -2.5777376380        2.8361931963       -3.0033166001
 H         -0.5923077714        3.4501941676       -1.6869050785
 H         -0.2062269651        2.5044260402        1.8874113549
 C          0.5960368464        3.9835004816        0.6044506714
 C          1.9272220859        4.4039461396        1.1514147838
 C          1.7129733094        4.3342076655       -0.3292637360
 H          1.6394610066        5.2612772183       -0.8789401543
 H          2.1875222402        3.5394745434       -0.8814804238
 H          2.0131923211        5.3732269761        1.6186978262
 H          2.5343300875        3.6391495414        1.6147701497
 H         -0.2081611664        4.7087069254        0.6853122032
