  62
        -98.93735700
 C         -1.3535439817       -1.8663186688       -0.4640685004
 C         -1.4817122010       -0.7155816584       -1.2776787800
 C         -2.7275152103        0.0667130426       -1.1213736193
 C         -3.6246115303       -0.3025233970       -0.1931733491
 C         -4.9030759996        0.3898005040        0.1924687815
 C         -4.6528879884        1.4004991635        1.3251350417
 C         -4.2906930673        2.8106623033        0.8632817720
 H         -5.1638179971        3.2686986342        0.3923910724
 H         -4.0537688965        3.3937358928        1.7564368521
 C         -3.1079895976        2.9026094126       -0.1035218584
 H         -2.7418765967        3.9317156423       -0.0817575382
 H         -2.2868818480        2.2731189918        0.2468646012
 C         -3.4791204884        2.5377643433       -1.5481025084
 H         -4.5644526984        2.5049484643       -1.6435723580
 H         -3.1330234579        3.3273792832       -2.2191682182
 C         -2.8697148997        1.2305052730       -2.0652919789
 H         -1.8515933496        1.4278167522       -2.4160604092
 H         -3.4404174302        0.8946656137       -2.9389911588
 H         -5.5529697381        1.4678401141        1.9402219820
 H         -3.8519348785        1.0082907926        1.9577610913
 H         -5.3623270395        0.8682190946       -0.6673180582
 H         -5.5748983901       -0.3883000155        0.5612326815
 O         -3.4423342110       -1.3945322673        0.6026831805
 C         -2.3227929317       -2.1931790483        0.4868732799
 O         -2.3018546722       -3.1652831885        1.2702412596
 O         -0.6146407210       -0.3349492689       -2.1055399402
 C         -0.1408529325       -2.7840788098       -0.4743045610
 C          0.8342341882       -2.3796042709        0.6049809187
 C          1.5400148377       -3.3291047018        1.3349801982
 C          2.4259596983       -2.9351280028        2.3224044980
 C          2.6150119996       -1.5955059830        2.6095806984
 C          1.8972965001       -0.6374400322        1.8994613289
 C          1.0297801994       -1.0378948312        0.8941259991
 H          0.4684807399       -0.2923677006        0.3576657495
 N          2.0185406314        0.7164074376        2.2154500292
 S          1.5498112021        1.9817785383        1.2379262898
 O          1.9486126634        3.1524131977        1.9909987000
 O          0.1499346319        1.8825395295        0.9155152902
 C          2.5827320915        1.8557772378       -0.2101513406
 C          3.8973626319        2.2613069067       -0.0667137610
 C          4.7562708414        2.1639297863       -1.1476431513
 C          4.2886927506        1.6632683570       -2.3541004613
 C          2.9683512902        1.2649353181       -2.4823151709
 C          2.1016111507        1.3571022786       -1.4025317006
 H          1.0743969404        1.0386138795       -1.4914185204
 H          2.5959652396        0.8756816187       -3.4162443309
 H          4.9551934103        1.5856325367       -3.1986080515
 H          5.7829389217        2.4777384754       -1.0485983915
 H          4.2137384026        2.6627884761        0.8822558190
 H          2.7339299718        0.9625418168        2.8804316991
 H          3.2935622701       -1.2907267938        3.3912953482
 H          2.9697394879       -3.6803680534        2.8828494976
 H          1.3732107367       -4.3788968516        1.1437806080
 H         -0.5257118633       -3.7817014396       -0.2050687112
 C          0.5178210569       -2.9039180900       -1.8413600913
 C          1.8158822174       -2.2429491810       -2.1826222516
 C          1.7564768062       -3.7305512210       -2.0237056120
 H          1.8332795053       -4.3488190508       -2.9052789922
 H          2.2120366661       -4.1567690816       -1.1435810122
 H          1.9187833174       -1.8265891808       -3.1722607915
 H          2.3059196981       -1.6633631016       -1.4151727916
 H         -0.2185632034       -2.9548201191       -2.6364167611
