  62
        -98.93190789
 C         -2.5562828502       -1.3331183311        0.0374798822
 C         -2.7198776941       -0.1978798318       -0.7911302652
 C         -4.0806781276        0.3548714008       -0.8572355553
 C         -5.0744249728       -0.2333035209       -0.1673835179
 C         -6.5258464953        0.1682060908       -0.1607131612
 C         -6.8474978971        1.5443772478        0.4535964292
 C         -6.9212018673        2.6894527806       -0.5640076648
 H         -7.1569345410        2.2733742688       -1.5442329700
 H         -7.7512971225        3.3454064229       -0.2940068002
 C         -5.6728289854        3.5707731107       -0.6695147278
 H         -5.7606586384        4.1668899700       -1.5804047874
 H         -5.6524774741        4.2632373117        0.1751818407
 C         -4.3332971290        2.8337914241       -0.6880123498
 H         -3.5544538364        3.5475309299       -0.9640556114
 H         -4.0886197865        2.4891384091        0.3197771501
 C         -4.2778984319        1.6215202225       -1.6379062572
 H         -5.1813978863        1.5645249223       -2.2431077183
 H         -3.4188035961        1.7120724498       -2.3055883451
 H         -7.8221058709        1.4549202059        0.9361309155
 H         -6.1214730730        1.7731838012        1.2334742091
 H         -6.9046933668        0.1312009228       -1.1845202994
 H         -7.0386030091       -0.6064329411        0.4130869786
 O         -4.8741243852       -1.3343923480        0.6087303943
 C         -3.6165561345       -1.8972616643        0.7455219325
 O         -3.5723970558       -2.8817168192        1.5116424239
 O         -1.7834697171        0.3245049735       -1.4497226277
 C         -1.1845265223       -1.9642254535        0.1926458798
 C         -0.2095557598       -0.9391378138        0.7208565251
 C         -0.5535771921       -0.2169176350        1.8608431952
 C          0.3038404931        0.7316938086        2.3828564031
 C          1.5245045865        0.9835610316        1.7810051787
 C          1.8831083506        0.2619964808        0.6515973509
 C          1.0225554293       -0.7007641013        0.1347829635
 H          1.3161901143       -1.2534483110       -0.7439285572
 N          3.1119301767        0.5207871210        0.0200270294
 S          4.4677134598        0.7708459468        0.9939149699
 O          4.5427016724       -0.2512290796        2.0142552701
 O          4.4494475725        2.1318765489        1.4684360228
 C          5.7766142774        0.5638353024       -0.1972000811
 C          6.0804855538        1.6193244821       -1.0361528072
 C          7.0784970711        1.4552527578       -1.9833525005
 C          7.7517006512        0.2459257702       -2.0755239592
 C          7.4362623276       -0.8035748391       -1.2257616164
 C          6.4378497823       -0.6469846716       -0.2770840180
 H          6.1645350522       -1.4326160131        0.4090134776
 H          7.9634326043       -1.7412309581       -1.2983149444
 H          8.5292572651        0.1215062189       -2.8125740691
 H          7.3281313396        2.2691458943       -2.6447789618
 H          5.5369860959        2.5426932442       -0.9222593921
 H          3.3073739071       -0.1375791733       -0.7216558682
 H          2.2020215840        1.7231761350        2.1762366982
 H          0.0205987420        1.2847180518        3.2663599099
 H         -1.5089031719       -0.4095905124        2.3314113621
 H         -1.2953449196       -2.7497842021        0.9545366359
 C         -0.7559425408       -2.6058766655       -1.1104114073
 C          0.1935291947       -3.7653766963       -1.1042355928
 C         -1.2520221897       -3.9815943792       -1.4348497272
 H         -1.5210770830       -4.2051708422       -2.4562295018
 H         -1.8807189602       -4.4664812281       -0.7021280213
 H          0.9160420570       -3.8464327315       -1.9024823988
 H          0.5515553728       -4.1128371105       -0.1467550393
 H         -0.6930070941       -1.8922739080       -1.9239101227
