  62
        -98.94440239
 C          1.9331867587        1.3508828835        0.0801224645
 C          2.2038677958        0.3936672715       -0.9275162505
 C          3.5752591364       -0.1378516302       -0.9599564110
 C          4.4812786648        0.2981419629       -0.0670986614
 C          5.8905223715       -0.2043780543        0.0461649997
 C          5.9840725759       -1.3781507233        1.0311322877
 C          4.9421054650       -2.4709724600        0.7916904819
 H          5.1240575923       -3.2599809877        1.5247005687
 H          3.9474808248       -2.0675838051        0.9965063004
 C          4.9645071990       -3.0711711501       -0.6210669259
 H          4.8915343644       -4.1578725983       -0.5406134254
 H          5.9157819533       -2.8456614408       -1.1044577230
 C          3.8169327874       -2.6139282016       -1.5235218680
 H          3.8038091284       -3.2570619209       -2.4076929183
 H          2.8655098582       -2.7542357114       -1.0035524080
 C          3.8915365510       -1.1622052807       -2.0136224681
 H          4.8725119717       -0.9728221455       -2.4536764134
 H          3.1351800249       -1.0359523105       -2.7936684666
 H          5.8475184964       -0.9923015592        2.0440250897
 H          6.9855310539       -1.8069230044        0.9631685203
 H          6.2420446410       -0.5123192410       -0.9366237402
 H          6.5184262647        0.6118855033        0.4072899067
 O          4.1924664904        1.2272443332        0.8778987675
 C          2.9227558296        1.7657186562        0.9793333977
 O          2.7977718786        2.6034116923        1.8946135639
 H         -0.3667101033       -0.3922000387       -0.5378845801
 C         -0.7894040892       -0.0960383091        0.4107312430
 C         -0.3960429032        1.1051160072        0.9836069877
 C         -0.9446245039        1.4672325371        2.2080149900
 C         -1.8628816733        0.6469710931        2.8410965338
 C         -2.2525293990       -0.5494297853        2.2663761816
 C         -1.7032422475       -0.9222726211        1.0466926162
 N         -2.1102722635       -2.1314049198        0.4416740972
 S         -3.7499230792       -2.2167253379        0.0955035189
 O         -4.4730185066       -2.5286823253        1.3027948160
 O         -3.8763125337       -3.1704434905       -0.9835481810
 C         -4.1636997529       -0.5716227679       -0.4556484482
 C         -3.6836797233       -0.1584245656       -1.6825105463
 C         -3.9238302634        1.1425290723       -2.0922190456
 C         -4.6295286312        2.0057914949       -1.2681871479
 C         -5.1043916725        1.5755855895       -0.0392583801
 C         -4.8679467806        0.2749113903        0.3756999711
 H         -5.2175338859       -0.1003375676        1.3233656970
 H         -5.6523739775        2.2500596358        0.5985687254
 H         -4.8107569946        3.0203898635       -1.5865316034
 H         -3.5544362136        1.4777989351       -3.0483067012
 H         -3.1403724017       -0.8570100879       -2.2990418538
 H         -1.5751508360       -2.3468433279       -0.3883095547
 H         -2.9730234816       -1.1981575858        2.7380085771
 H         -2.2801019408        0.9424925761        3.7915751315
 H         -0.6388769378        2.3955807019        2.6680677880
 C          0.5760399544        2.0126617771        0.2686646820
 H          0.7615007077        2.8796463154        0.9161433428
 C         -0.0286481582        2.5079105905       -1.0323198553
 C         -1.0714368515        3.5816646390       -0.9839846724
 C          0.2970732601        3.8884229161       -1.5128245920
 H          0.4202287281        4.0487985491       -2.5733909934
 H          0.9594669376        4.4860249365       -0.9031304748
 H         -1.8928819416        3.5304784139       -1.6810329166
 H         -1.3398732454        3.9742943427       -0.0151957165
 H         -0.1351665112        1.7331802586       -1.7795467541
 O          1.3617599542       -0.0178451370       -1.7715785411
