  62
        -98.93313322
 C          2.3400667298        0.6180020803        0.1323293129
 C          2.6540676903       -0.7646441843        0.1803926952
 C          3.9581747067       -1.1770897026       -0.3649770728
 C          4.7682641372       -0.2400007390       -0.8865776202
 C          6.1526630671       -0.4259810790       -1.4433215831
 C          7.2129844204       -0.1735786364       -0.3579824446
 C          7.5700423937       -1.3938332710        0.4897546745
 H          8.1392441599       -2.0995828410       -0.1188216646
 H          8.2256964770       -1.0506103968        1.2932741608
 C          6.3800362222       -2.1316623660        1.1088553668
 H          6.7503843791       -2.7155079395        1.9538153047
 H          5.6640051898       -1.4093121672        1.5053003332
 C          5.6764965788       -3.0764958761        0.1231395820
 H          5.5833424071       -4.0663746393        0.5747786620
 H          6.3007591520       -3.1980862729       -0.7618112686
 C          4.2626830271       -2.6488449769       -0.2974862657
 H          4.0271658292       -3.0982598552       -1.2681250696
 H          3.5335890282       -3.0492379599        0.4142003215
 H          6.8465661036        0.6288342699        0.2873660232
 H          8.1265970842        0.1839711352       -0.8371241642
 H          6.2742105052        0.3227936987       -2.2286953199
 H          6.2632257350       -1.4138916411       -1.8801781068
 O          4.4268684425        1.0750335587       -0.9245059969
 C          3.2237496806        1.5430315907       -0.4241101263
 O          3.0871279142        2.7764501291       -0.5447511910
 O          1.8756002124       -1.6252741293        0.6758256808
 C          1.0018434477        1.0300703284        0.7184822999
 C         -0.0629350701        1.2140705451       -0.3370293169
 C          0.0724767038        2.1507925379       -1.3566186910
 C         -0.9410610888        2.3288373386       -2.2802162449
 C         -2.1134504692        1.5989067524       -2.1930894519
 C         -2.2562434125        0.6576215683       -1.1806971826
 C         -1.2276544196        0.4639245976       -0.2691568945
 H         -1.3490501093       -0.2807771468        0.5042879919
 N         -3.4263989766       -0.1096804398       -1.0702990756
 S         -3.9787451954       -0.4944013427        0.4791746410
 O         -3.8283408413        0.6455426858        1.3546608984
 O         -3.3465996402       -1.7166304064        0.9088706321
 C         -5.7045893006       -0.7931141145        0.1445454085
 C         -6.6180269258        0.2233245708        0.3516204164
 C         -7.9536107144       -0.0062563247        0.0606365374
 C         -8.3502712098       -1.2401725380       -0.4326092797
 C         -7.4218653110       -2.2507823238       -0.6347268102
 C         -6.0849994024       -2.0284897173       -0.3449354350
 H         -5.3295489450       -2.7856860859       -0.4764030317
 H         -7.7345735737       -3.2097052527       -1.0153434543
 H         -9.3900984343       -1.4165128492       -0.6581775825
 H         -8.6779673639        0.7762000735        0.2197670559
 H         -6.2646659546        1.1629105335        0.7450598167
 H         -4.1728870416        0.2205374861       -1.6665355214
 H         -2.9095804646        1.7521516476       -2.9058363708
 H         -0.8227949160        3.0567483090       -3.0687772266
 H          0.9777332042        2.7349854101       -1.4156724263
 H          0.6910427270        0.1838555489        1.3474199344
 C          1.0702368662        2.2708155067        1.5901881604
 C         -0.0703123852        2.5594806683        2.5182461101
 C          1.2540390829        2.1246531648        3.0691499711
 H          1.8614611167        2.8517876748        3.5869210566
 H          1.3361547587        1.1233372010        3.4668850440
 H         -0.3717837576        3.5864316374        2.6571469368
 H         -0.8920309291        1.8575915610        2.5372754141
 H          1.5508941231        3.1104409948        1.1053198492
