  62
        -98.93723847
 C          1.1635193228        0.9207108755        0.5728061693
 C          1.9108208622        0.5874316294       -0.5804854309
 C          2.9366394073       -0.4667736710       -0.4286570743
 C          3.0540610828       -1.0983493514        0.7532522961
 C          4.0412095023       -2.1634299459        1.1508526191
 C          5.4492069786       -1.6021261798        1.4082530795
 C          5.9361511489       -0.5879675602        0.3765506855
 H          6.8904473841       -0.1882256114        0.7293154772
 H          5.2320342873        0.2448192077        0.3326931416
 C          6.1529051588       -1.1429107808       -1.0291123299
 H          6.8845825380       -1.9527255942       -0.9858967611
 H          6.5820068089       -0.3391610933       -1.6327149069
 C          4.9018624274       -1.6566551997       -1.7451044068
 H          4.6126724557       -2.6377945149       -1.3776353255
 H          5.1602670934       -1.7857712516       -2.8002851244
 C          3.7083263504       -0.7074795006       -1.7039269042
 H          2.9638963753       -1.0512779566       -2.4329448115
 H          4.0237995983        0.2801748921       -2.0596374253
 H          6.1486988341       -2.4381735238        1.4594995441
 H          5.4417830057       -1.1081507748        2.3830153078
 H          3.6671193738       -2.6059709997        2.0770218472
 H          4.0656066927       -2.9475415213        0.3996464790
 O          2.2546482648       -0.7985603458        1.8172878355
 C          1.2901981324        0.1867819030        1.7533176299
 O          0.6112599404        0.3110040563        2.7936841869
 H         -0.9654164408       -0.3397384613       -0.1579594122
 C         -1.3168857355        0.4462437186       -0.8089356771
 C         -0.8425063875        1.7392575791       -0.6309514895
 C         -1.2678372572        2.7264634179       -1.5095078863
 C         -2.1408515752        2.4142368337       -2.5380406947
 C         -2.6252288008        1.1290043973       -2.6990829145
 C         -2.2017483585        0.1330347130       -1.8258282081
 N         -2.6602472087       -1.1873545451       -1.9460151157
 S         -2.8595732141       -2.1205187282       -0.5753593874
 O         -1.5835378262       -2.5812872645       -0.0858301010
 O         -3.7861346099       -3.1554229289       -0.9835012960
 C         -3.6474444065       -1.0424983548        0.6089534324
 C         -4.9315585907       -0.6182700966        0.3246308044
 C         -5.5618080763        0.2518579846        1.1982373434
 C         -4.8985918405        0.6867792498        2.3360032555
 C         -3.6135804152        0.2469911439        2.6113933186
 C         -2.9791812311       -0.6271600779        1.7422029684
 H         -1.9768497965       -0.9786310852        1.9343257163
 H         -3.0894050879        0.5809507641        3.4929345437
 H         -5.3848572955        1.3699303763        3.0142829973
 H         -6.5635592740        0.5907036355        0.9892108674
 H         -5.4182947628       -0.9865646913       -0.5636892993
 H         -3.3960618838       -1.3307075042       -2.6213051655
 H         -3.3099651197        0.8918095312       -3.4986002827
 H         -2.4552744802        3.1877851449       -3.2220317350
 H         -0.9014744493        3.7342975904       -1.4051136816
 C          0.0744505181        1.9785315969        0.5442944326
 H         -0.5178986628        1.7871262365        1.4555765134
 C          0.5739695389        3.4119155079        0.6514406644
 C          1.9302589869        3.7222326524        1.2096520425
 C          1.6453793751        3.9588509945       -0.2415694495
 H          1.5546497495        4.9795531382       -0.5837911252
 H          2.0748192895        3.2881321214       -0.9680785466
 H          2.5640185734        2.8886222115        1.4770084559
 H          2.0327531817        4.5754316105        1.8635984065
 H         -0.2213492082        4.0964361286        0.9296803866
 O          1.7513260404        1.1399891773       -1.7000104847
