  62
        -98.93440492
 C         -1.7900909600       -1.1209140381        0.2699962962
 C         -2.1360538156       -0.0206638770       -0.5497201766
 C         -3.5806080260        0.2602600786       -0.7150171663
 C         -4.4769081474       -0.5296808168       -0.0976113035
 C         -5.9785533340       -0.4214776904       -0.0967413639
 C         -6.4902959705        0.7023550262        0.8185479733
 C         -5.7223288492        2.0171780726        0.7114821827
 H         -6.1095094593        2.6914700391        1.4800068998
 H         -4.6698670301        1.8383404685        0.9396641945
 C         -5.8360066666        2.7292979766       -0.6343263949
 H         -6.8878811526        2.9396664262       -0.8406300108
 H         -5.3189055511        3.6875551337       -0.5382968641
 C         -5.2435335554        1.9896807742       -1.8357721001
 H         -5.1744970142        2.7087976761       -2.6574028748
 H         -5.9059274646        1.1978714044       -2.1753064433
 C         -3.8359806062        1.4433480595       -1.6178082046
 H         -3.4164057597        1.1669119928       -2.5929191189
 H         -3.1919091881        2.2494927712       -1.2475888478
 H         -6.4148415577        0.3566731235        1.8524501860
 H         -7.5448962392        0.8746636973        0.5970208789
 H         -6.3606706650       -1.3741982610        0.2767544305
 H         -6.3453529134       -0.2928077631       -1.1106960790
 O         -4.0964208607       -1.5743480955        0.6922145825
 C         -2.7705194984       -1.8849633534        0.9101038190
 O         -2.5898437126       -2.8486288794        1.6809606807
 O         -1.2989789161        0.7142326508       -1.1350381051
 C         -0.3496339644       -1.5103885525        0.5612980765
 C          0.4521462647       -0.2977193676        0.9578157587
 C          0.3645944332        0.1930137994        2.2563754896
 C          1.0959302951        1.3001222722        2.6482978207
 C          1.9266463716        1.9454428040        1.7485717458
 C          2.0054983094        1.4721243695        0.4472446590
 C          1.2837965150        0.3524832572        0.0597528400
 H          1.3474498689        0.0016821687       -0.9585841528
 N          2.8774561056        2.1153605753       -0.4672533660
 S          4.4863653638        1.7089645227       -0.2383299675
 O          4.9101526912        2.2118941288        1.0430601147
 O          5.1995789282        2.2045613471       -1.3935418772
 C          4.4868071380       -0.0754058145       -0.2269605725
 C          4.2306284709       -0.7354144588        0.9583875287
 C          4.1190316642       -2.1164649780        0.9445199270
 C          4.2610440826       -2.8093132002       -0.2482204413
 C          4.5212199846       -2.1319150315       -1.4299007137
 C          4.6279905225       -0.7504808953       -1.4229364928
 H          4.8282601543       -0.1850630966       -2.3191100316
 H          4.6330606642       -2.6748489983       -2.3547858251
 H          4.1670270237       -3.8840903419       -0.2561714772
 H          3.9121242345       -2.6455502624        1.8609730518
 H          4.1263327317       -0.1615607075        1.8647416370
 H          2.6239087201        1.9388975004       -1.4298879373
 H          2.5190725961        2.7990982470        2.0354457557
 H          1.0193231009        1.6636086301        3.6619341159
 H         -0.2877971489       -0.3061476018        2.9599476871
 H         -0.4139605717       -2.1740076488        1.4380354456
 C          0.3308444337       -2.3125852103       -0.5391323956
 C         -0.4173070993       -3.3837929834       -1.2728131124
 C          0.0154884541       -2.1439331008       -1.9934906391
 H          0.8281337912       -2.2215997970       -2.7012779188
 H         -0.7346727113       -1.4199280049       -2.2695765864
 H          0.0896288464       -4.3115998449       -1.4895904059
 H         -1.4664758963       -3.5015602037       -1.0428075351
 H          1.3663702734       -2.5270578960       -0.2910683463
