  62
        -98.93566434
 C         -1.7647613307       -1.0521098699        0.6136291496
 C         -2.0335699704        0.3325467001        0.7666682294
 C         -3.4185559903        0.7805408405        0.5446591692
 C         -4.3542591704       -0.1250994093        0.2046787092
 C         -5.8430380904        0.0167133510       -0.0342738510
 C         -6.4761824800        1.3935331611       -0.2162212612
 C         -6.0736928897        2.1160152409       -1.5015446113
 H         -6.5202502697        1.5900234109       -2.3492325013
 H         -6.4969225094        3.1225076610       -1.4751054514
 C         -4.5723143696        2.2140558805       -1.7605551411
 H         -4.1543986798        1.2124641004       -1.8816910009
 H         -4.4309801394        2.7374755704       -2.7101099011
 C         -3.7713974596        2.9606237504       -0.6956176910
 H         -2.7557199995        3.0895366001       -1.0791296509
 H         -4.2001972393        3.9528362605       -0.5423064612
 C         -3.6642242399        2.2567960605        0.6681022390
 H         -4.5401415499        2.4504047808        1.2827487189
 H         -2.7968832599        2.6677713504        1.1926479191
 H         -7.5577505700        1.2365874614       -0.2511783214
 H         -6.2771158400        2.0165692912        0.6507213587
 H         -6.3267615606       -0.4771517588        0.8158921690
 H         -6.0641212904       -0.5984049890       -0.9124354610
 O         -4.0490505507       -1.4463835594        0.0620311294
 C         -2.7684413409       -1.9447533497        0.2426943896
 O         -2.6868080212       -3.1728433398        0.0414357897
 O         -1.1471574102        1.1661012500        1.0942122195
 C         -0.3343583109       -1.4928021503        0.8635832499
 C          0.4609505393       -1.6065469606       -0.4150912700
 C          0.0846620592       -2.4730209406       -1.4357929300
 C          0.8548519093       -2.5778697109       -2.5793908699
 C          2.0209316395       -1.8447503312       -2.7166540898
 C          2.4064342296       -0.9780230312       -1.7012423498
 C          1.6158916595       -0.8539660509       -0.5674312900
 H          1.9096623295       -0.1651948709        0.2095150300
 N          3.5770763798       -0.2153097515       -1.8078744598
 S          4.5321242397        0.0497454484       -0.4582362597
 O          5.8426591398        0.3438306380       -0.9974072295
 O          4.4584984993       -1.0538562115        0.4699213604
 C          3.8664743800        1.5274355086        0.2765671801
 C          3.7348871903        2.6504620786       -0.5157696000
 C          3.2323553205        3.8115722488        0.0483712298
 C          2.8739164304        3.8308615590        1.3878374297
 C          3.0170258500        2.6966330190        2.1713837199
 C          3.5187962898        1.5321125789        1.6124924901
 H          3.6411250695        0.6259746589        2.1855289602
 H          2.7351536299        2.7124869992        3.2120621598
 H          2.4793325905        4.7345101391        1.8249908696
 H          3.1188042008        4.6968158687       -0.5565455003
 H          4.0270936305        2.5975198384       -1.5512862300
 H          4.1297551899       -0.3930525917       -2.6336914797
 H          2.6284958396       -1.9417050514       -3.6037685497
 H          0.5517221393       -3.2500176609       -3.3682046399
 H         -0.8145781210       -3.0591279804       -1.3231626801
 H          0.1147228393       -0.6824742303        1.4542353198
 C         -0.2133119913       -2.7820056702        1.6547844100
 C          1.1150899586       -3.1336121905        2.2531634002
 C         -0.0213299815       -2.7207637901        3.1388443000
 H         -0.4970147817       -3.4723180199        3.7509668800
 H          0.0187814087       -1.7440743401        3.5986761799
 H          1.4179777883       -4.1696737306        2.2559508404
 H          1.9332863687       -2.4438918207        2.1032608002
 H         -0.8164185114       -3.5886739001        1.2591790300
