  62
        -98.92991712
 C          0.6486237306        1.6085546996        0.2022743696
 C          1.0297401402        0.5694236391       -0.6816735700
 C          2.2729222802       -0.1685141809       -0.3522067901
 C          2.8390700207        0.0078552997        0.8532550296
 C          4.0710098408       -0.6383256902        1.4303489596
 C          5.3721667507       -0.0464352206        0.8687283588
 C          5.3870205702        0.1318356586       -0.6466279913
 H          4.5740852101        0.8001754086       -0.9357812713
 H          6.3240383301        0.6274423584       -0.9140256419
 C          5.2952589097       -1.1611173118       -1.4542031206
 H          5.4462602094       -0.8974346023       -2.5042045308
 H          6.1103350498       -1.8259881017       -1.1602416305
 C          3.9739037497       -1.9279865416       -1.3465845698
 H          3.9486542993       -2.6477105120       -2.1699990994
 H          3.9300285299       -2.5076866411       -0.4286735894
 C          2.7265351797       -1.0603127515       -1.4828583398
 H          2.8390466695       -0.4126401120       -2.3611533001
 H          1.8689517696       -1.7012341315       -1.7147987592
 H          6.2020840407       -0.6877412105        1.1705722889
 H          5.5229213809        0.9363320896        1.3221356083
 H          4.0426801012       -0.4517353696        2.5060725595
 H          4.0418687206       -1.7127113802        1.2776598201
 O          2.3226190211        0.8855515302        1.7592455494
 C          1.2940590710        1.7421922501        1.4398516393
 O          1.0274638914        2.5647562706        2.3403715790
 H         -1.6299056199        0.2802275593       -0.8562298490
 C         -2.2762018296        0.8688869097       -0.2247926490
 C         -1.8469087693        2.0914813599        0.2698537202
 C         -2.7212290790        2.8448287004        1.0482169101
 C         -3.9919835189        2.3830341707        1.3339334608
 C         -4.4054516392        1.1472929905        0.8712221115
 C         -3.5400213996        0.3863009800        0.0923290516
 N         -3.9402758699       -0.8770853002       -0.3555318076
 S         -2.8781155601       -2.0813401305       -0.7868106373
 O         -2.3909774606       -1.8685264413       -2.1249313376
 O         -3.6482313702       -3.2962691604       -0.5998597565
 C         -1.5233768097       -2.0908432001        0.3773783222
 C         -0.3401199399       -2.6533532304       -0.0549700479
 C          0.7238344003       -2.7508614801        0.8264038818
 C          0.5923168608       -2.2735860594        2.1204360216
 C         -0.6027700490       -1.7140515391        2.5419379117
 C         -1.6772114892       -1.6318185894        1.6697896520
 H         -2.6139220391       -1.2056835692        1.9899731421
 H         -0.7022613786       -1.3385712086        3.5479225915
 H          1.4247977411       -2.3359109492        2.8035139413
 H          1.6495783902       -3.1956537004        0.4993724117
 H         -0.2753423603       -2.9917938110       -1.0769884678
 H         -4.7871453098       -1.2413561699        0.0540065629
 H         -5.3875455392        0.7690157707        1.1100915621
 H         -4.6598814786        2.9792754310        1.9364843607
 H         -2.3892153587        3.7945556605        1.4411212795
 C         -0.4606547293        2.6296783596       -0.0050667806
 H         -0.2611045790        3.3688084200        0.7869103390
 C         -0.4820380297        3.4376064089       -1.3011167510
 C          0.6659724400        3.5054908783       -2.2594032214
 C         -0.6227688802        2.8619092883       -2.6755978306
 H         -1.2559599804        3.3826480280       -3.3797174207
 H         -0.6315688704        1.7894539482       -2.7784830101
 H          0.9352761999        4.4643502081       -2.6776525620
 H          1.5082979300        2.8540202583       -2.0779782113
 H         -1.0126354395        4.3735247391       -1.1453101413
 O          0.4058412398        0.2410684986       -1.7237563196
