  62
        -98.94287612
 C         -2.3155894313       -0.6222331971       -0.0913321602
 C         -1.2899909707       -0.8587801423        0.8499215757
 C         -0.4458391209       -2.0452601430        0.6296910153
 C         -0.6897591029       -2.8301244825       -0.4346601935
 C          0.0853312321       -4.0177132690       -0.9498264700
 C          0.7205601949       -4.9823435840        0.0607634669
 C          2.2366049956       -4.8191600956        0.1994909251
 H          2.6601471097       -5.7730088018        0.5225027560
 H          2.6509070615       -4.5951704578       -0.7859895635
 C          2.7000150015       -3.7524492796        1.1895107389
 H          3.7849074803       -3.6648888722        1.0958325788
 H          2.4849234374       -4.0852080640        2.2072555177
 C          2.0799074773       -2.3686124149        0.9942856014
 H          2.0389901883       -2.1054545314       -0.0646616859
 H          2.7312245813       -1.6338552226        1.4740888083
 C          0.6771415932       -2.2405276453        1.6099918371
 H          0.4638437850       -3.1049788443        2.2428879179
 H          0.6400003688       -1.3618851203        2.2600345038
 H          0.2325099682       -4.8864255129        1.0284408819
 H          0.5293390087       -5.9954342117       -0.2977935009
 H         -0.6234152731       -4.5613556557       -1.5802573586
 H          0.8551968111       -3.6251200361       -1.6222705265
 O         -1.7280574864       -2.5939803267       -1.2884704570
 C         -2.5316848653       -1.4758413981       -1.1693248295
 O         -3.3933068650       -1.3568508077       -2.0661302863
 O         -1.0642742945       -0.0888577502        1.8223336985
 C         -3.1098854820        0.6701976220       -0.0223607003
 C         -2.1384994512        1.8274290165       -0.0673724775
 C         -2.2375087024        2.9535003991        0.7395959620
 C         -1.2746746983        3.9469876549        0.6762479243
 C         -0.1842058118        3.8278321457       -0.1662401944
 C         -0.0835467383        2.7102518019       -0.9873018458
 C         -1.0754981737        1.7445206810       -0.9583512059
 H         -0.9867598795        0.8860842620       -1.6082272667
 N          1.0140884226        2.5233614284       -1.8521405597
 S          1.9672200521        1.1591365339       -1.6478068781
 O          3.0043811207        1.2813447784       -2.6504746390
 O          1.1595246046       -0.0314175681       -1.7119741027
 C          2.6981712540        1.3518504200       -0.0311843086
 C          1.9098082182        1.2003205543        1.0917533900
 C          2.4811627611        1.4046617596        2.3387684289
 C          3.8185568244        1.7536462763        2.4429760856
 C          4.5960029485        1.9027575089        1.3042042793
 C          4.0312451180        1.7056730463        0.0546848255
 H          4.5950144463        1.8098586303       -0.8582530124
 H          5.6366622742        2.1724017063        1.3856565711
 H          4.2558575613        1.9084301086        3.4167318396
 H          1.8678801677        1.2854642410        3.2178379094
 H          0.8736464799        0.9180836686        0.9941742884
 H          1.6141901276        3.3331917679       -1.9306986292
 H          0.5830211509        4.5869912751       -0.1894941538
 H         -1.3631004246        4.8157590092        1.3104960956
 H         -3.0629979632        3.0484017819        1.4259759467
 H         -3.7292479549        0.6980828250       -0.9310830174
 C         -4.0151049423        0.6884129360        1.1911890384
 C         -5.3088541053        1.4439659583        1.1583011451
 C         -5.3149085501       -0.0541664096        1.1325618308
 H         -5.6450703082       -0.5864179852        2.0118751262
 H         -5.5576512970       -0.5521662823        0.2047625987
 H         -5.6403068954        1.9393299720        2.0584140556
 H         -5.5614044207        1.9653385835        0.2472851750
 H         -3.4612490441        0.6557344273        2.1220824606
