  62
        -98.94042064
 C         -2.0513314895       -0.4500838506        0.1145840694
 C         -2.7241568693        0.7255054797        0.5369302689
 C         -4.0694094692        0.9441320797       -0.0080697113
 C         -4.5746274993        0.0519895195       -0.8791497111
 C         -5.9450743192        0.1248841795       -1.4864921012
 C         -6.9739043794       -0.6332435900       -0.6363819011
 C         -6.9275748295       -0.2785026294        0.8497619188
 H         -5.9764873596       -0.6167981694        1.2672821590
 H         -7.7169813897       -0.8479635691        1.3451270789
 C         -7.1087790693        1.2156769907        1.1515488582
 H         -7.8095590493        1.3228672412        1.9822657781
 H         -7.5501613991        1.7173310905        0.2895625780
 C         -5.8239145292        1.9410068107        1.5562358081
 H         -5.3275661994        1.3874743109        2.3573962983
 H         -6.0984301590        2.9203250109        1.9574262577
 C         -4.8073054690        2.1771887100        0.4319229381
 H         -4.0440775889        2.8627210700        0.8120482079
 H         -5.3024080188        2.6532425998       -0.4172158621
 H         -6.7859868996       -1.7044821400       -0.7389297006
 H         -7.9695940993       -0.4237530699       -1.0315613912
 H         -5.9046198792       -0.3258611009       -2.4796150011
 H         -6.2371129390        1.1688062595       -1.5841342117
 O         -3.8976034694       -1.0525372908       -1.2762188706
 C         -2.6232309395       -1.3392826209       -0.7967739303
 O         -2.1427274297       -2.3883036611       -1.2603451498
 O         -2.2174611092        1.5534177399        1.3422180986
 C         -0.6641154496       -0.6748082507        0.6890012497
 C          0.3890634406       -0.0553131412       -0.1933748005
 C          0.4405885507       -0.3292449618       -1.5564595904
 C          1.4226663909        0.2360256777       -2.3495225205
 C          2.3746930010        1.0779064578       -1.8013756907
 C          2.3349827309        1.3536047583       -0.4415187908
 C          1.3453704207        0.7883506188        0.3524905493
 H          1.3091462107        1.0210662292        1.4081442092
 N          3.3257062910        2.1827013183        0.1222537290
 S          4.9077316010        1.6542622480       -0.0697536606
 O          5.6638866810        2.3167251682        0.9681118392
 O          5.3307928212        1.9004022874       -1.4242757707
 C          4.8081917106       -0.0989753619        0.2394943400
 C          4.7407165804       -0.5270433414        1.5507865002
 C          4.5586720001       -1.8761800312        1.8072440007
 C          4.4339093100       -2.7681362216        0.7528913010
 C          4.5073001402       -2.3229299122       -0.5574911491
 C          4.6960846005       -0.9755131623       -0.8208117796
 H          4.7619555107       -0.5914862827       -1.8252812798
 H          4.4111065002       -3.0193797024       -1.3747754089
 H          4.2755590698       -3.8154302815        0.9542576514
 H          4.5053527299       -2.2270737808        2.8253514608
 H          4.8434557604        0.1975700989        2.3429310599
 H          3.1525514210        2.4111770387        1.0909730289
 H          3.1505178712        1.5221527274       -2.4038652508
 H          1.4482087210        0.0176248673       -3.4064184904
 H         -0.2938418693       -0.9948172018       -1.9841750702
 H         -0.6654155596       -0.1162264003        1.6385611394
 C         -0.3659842199       -2.1311600106        1.0202287302
 C          0.6631417300       -2.9510012411        0.3068245507
 C          0.9187878900       -2.4890626806        1.7076720605
 H          0.8932091297       -3.2121836003        2.5082791408
 H          1.6441962701       -1.7007335207        1.8438232003
 H          0.4346776198       -3.9909536211        0.1324321911
 H          1.2241904602       -2.4893193615       -0.4901337594
 H         -1.2555490600       -2.6601137203        1.3459654304
