  62
        -98.93747218
 C         -2.4043532081       -1.1290258878       -0.0112792186
 C         -3.3829724851       -0.6261354739        0.8839302772
 C         -4.3740108772        0.3263697544        0.3495987057
 C         -4.3081307936        0.6596664082       -0.9524960112
 C         -5.1728947380        1.6262482352       -1.7172435617
 C         -4.8301883832        3.0942492150       -1.4177929172
 C         -4.6226375328        3.4168518406        0.0595724234
 H         -3.8184825546        2.7925598032        0.4533189715
 H         -4.2893323650        4.4557250083        0.1284196425
 C         -5.8613984963        3.2646011819        0.9390823935
 H         -5.5953150934        3.6222363775        1.9370026312
 H         -6.6544658496        3.9105346358        0.5559499131
 C         -6.4143276909        1.8442315190        1.0774841384
 H         -6.9868545819        1.5567639606        0.1996734199
 H         -7.1160196912        1.8490194344        1.9166430678
 C         -5.3662451588        0.7816552118        1.3923446788
 H         -5.8804466877       -0.1284223586        1.7240502707
 H         -4.7728923206        1.1057740847        2.2548353835
 H         -5.6255102450        3.7226552114       -1.8222475009
 H         -3.9050745994        3.3394481937       -1.9452823114
 H         -4.9921163977        1.4361319978       -2.7775984320
 H         -6.2217532007        1.4258597095       -1.5198290465
 O         -3.3545202845        0.1478097253       -1.7799057496
 C         -2.3888155179       -0.7433290394       -1.3507207586
 O         -1.6052387404       -1.0962735949       -2.2570963327
 O         -3.4335886976       -0.9628332403        2.0974882457
 C         -1.4012456942       -2.1159603675        0.5614717650
 C         -0.0674236067       -1.4664018412        0.8459670127
 C          0.4263680278       -1.3961597100        2.1434248696
 C          1.6593590194       -0.8215549596        2.3980289980
 C          2.4218407287       -0.3018825721        1.3675040981
 C          1.9363165051       -0.3641981697        0.0677677268
 C          0.7035007290       -0.9490036879       -0.1853523648
 H          0.3288520394       -0.9905922017       -1.1975278761
 N          2.6876390234        0.1858155394       -0.9853000949
 S          4.3026847958       -0.2475582923       -1.1242556555
 O          4.6354396291       -0.0411199679       -2.5167539207
 O          4.5452072742       -1.5699988963       -0.5954147246
 C          5.1549069048        0.9677129771       -0.1401053852
 C          4.9297074134        2.3022179802       -0.4157895173
 C          5.5922056593        3.2611530107        0.3336124868
 C          6.4659190136        2.8718162408        1.3381170689
 C          6.6838742399        1.5279905791        1.6002189685
 C          6.0235239523        0.5635780125        0.8547078044
 H          6.1566547140       -0.4926425412        1.0263269663
 H          7.3634368465        1.2275818975        2.3814389649
 H          6.9796942634        3.6206533814        1.9200022402
 H          5.4248780422        4.3071357277        0.1329090388
 H          4.2448630027        2.5622040420       -1.2057426732
 H          2.2214876183        0.1278398169       -1.8795202045
 H          3.3821136460        0.1481922941        1.5595173977
 H          2.0300307407       -0.7746083668        3.4105366181
 H         -0.1690051849       -1.7875328514        2.9554305172
 H         -1.8298575792       -2.4290232125        1.5230115819
 C         -1.2185921482       -3.3484348365       -0.3038136031
 C         -0.6797997249       -4.6000118914        0.3187028434
 C         -2.1170533697       -4.5294979487       -0.1004796576
 H         -2.4328343623       -5.0910529135       -0.9668809830
 H         -2.8698905096       -4.4571463516        0.6708927279
 H         -0.0029377225       -5.2112789714       -0.2584126893
 H         -0.4583242146       -4.5772864179        1.3749404452
 H         -0.9190707370       -3.1223367905       -1.3191290503
