  62
        -98.94098593
 C          1.1172350887        1.3261774510        0.6058599728
 C          1.6312111058        0.8041521154       -0.6032040705
 C          2.4909770929       -0.3914565851       -0.4900508476
 C          2.6589533771       -0.9738524100        0.7112202500
 C          3.4359692977       -2.2043380192        1.1315687274
 C          4.3796711128       -2.8995419042        0.1544053421
 C          5.6517951471       -2.1121879085       -0.1632825597
 H          6.2967373508       -2.1294122760        0.7189353762
 H          6.1814994712       -2.6222653862       -0.9705986354
 C          5.4443832483       -0.6495425204       -0.5488160425
 H          6.4301844169       -0.1980405444       -0.6899172821
 H          4.9624833529       -0.1174835534        0.2737607248
 C          4.6423300875       -0.4181511309       -1.8271887337
 H          4.6801978947        0.6512905872       -2.0519231453
 H          5.1126655343       -0.9495631527       -2.6570141313
 C          3.1625041367       -0.8288018206       -1.7607871807
 H          2.6363334394       -0.3185920128       -2.5730912230
 H          3.0485906102       -1.8980105429       -1.9189505520
 H          3.8538795607       -3.1629780581       -0.7585850761
 H          4.6835162598       -3.8382564551        0.6252783888
 H          3.9997409493       -1.9137604390        2.0240362494
 H          2.6844935613       -2.9258782960        1.4691488665
 O          2.0412182651       -0.4967300577        1.8328648421
 C          1.2875619768        0.6592789496        1.8178610106
 O          0.8177224454        0.9817593985        2.9293760497
 H         -1.5379529716        0.9759030815        1.6141768540
 C         -1.8784213320        1.3932504241        0.6744252811
 C         -1.0585753987        2.2944761563        0.0039110597
 C         -1.4980387738        2.8201620803       -1.2026157820
 C         -2.7262375934        2.4452250971       -1.7232254689
 C         -3.5401526755        1.5501463844       -1.0532101917
 C         -3.1080919692        1.0214290197        0.1571178597
 N         -3.9265259562        0.0942881570        0.8438662221
 S         -4.1055286524       -1.3964996887        0.1026044962
 O         -4.7774939653       -1.2078713057       -1.1569006093
 O         -4.7748739281       -2.2371247195        1.0683562390
 C         -2.4449871542       -1.9872682642       -0.1721027562
 C         -1.8946752084       -2.8740541514        0.7311824901
 C         -0.5934142206       -3.3076769028        0.5366361358
 C          0.1352859814       -2.8370290966       -0.5442570917
 C         -0.4257617655       -1.9340721432       -1.4337987524
 C         -1.7296697251       -1.5043000735       -1.2500916918
 H         -2.1978154522       -0.8106250769       -1.9292744462
 H          0.1490048062       -1.5538650118       -2.2629119748
 H          1.1473206204       -3.1759016423       -0.6961598287
 H         -0.1527654467       -4.0086316070        1.2276514488
 H         -2.4983591647       -3.2174368080        1.5561598154
 H         -3.6302054795       -0.0531099637        1.7992567763
 H         -4.4901141254        1.2360140453       -1.4539868645
 H         -3.0539935979        2.8572576868       -2.6655716873
 H         -0.8748461284        3.5129322359       -1.7429854420
 C          0.2840517661        2.5984295974        0.6218022908
 H          0.1158626541        2.8316697171        1.6827926897
 C          1.0154743716        3.7562249854       -0.0206328980
 C          0.5831474492        5.1588626435        0.2800229246
 C          1.8751001353        4.6379263725        0.8323512539
 H          2.8008754465        5.0100471256        0.4198411801
 H          1.9276179903        4.4155421600        1.8885048691
 H         -0.2431246472        5.2910367927        0.9622420200
 H          0.6221166978        5.8924697063       -0.5106480963
 H          1.3701733509        3.5344930215       -1.0192602436
 O          1.3975805663        1.3053723356       -1.7324088128
