  62
        -98.94485883
 C         -2.6458206795       -0.2956081818       -0.0165137699
 C         -2.4458784289       -1.4070353718       -0.8681318598
 C         -1.7914437684       -2.5695837114       -0.2606793396
 C         -1.4264381085       -2.5275276110        1.0339296504
 C         -0.7068562780       -3.6150559306        1.7837394906
 C          0.8147314920       -3.5804430399        1.5787931107
 C          1.2974822523       -4.0953675798        0.2214218608
 H          2.3741667224       -4.2565468092        0.3058585009
 H          0.8377209628       -5.0624762400        0.0134314509
 C          1.0331454620       -3.1320594301       -0.9444790593
 H          0.8420945914       -2.1327499401       -0.5438816594
 H          1.9272428220       -3.0647016397       -1.5701382392
 C         -0.1205595678       -3.5417160707       -1.8607985493
 H          0.1344280027       -4.4714971707       -2.3747678692
 H         -0.2505326481       -2.7635835409       -2.6176971894
 C         -1.4646222277       -3.7341585813       -1.1472638594
 H         -2.2473282776       -3.8017478818       -1.9072129295
 H         -1.4559173573       -4.6583385312       -0.5702927893
 H          1.1577423915       -2.5515269997        1.7189478906
 H          1.2651422722       -4.1956152695        2.3614811608
 H         -0.9167319382       -3.4545692906        2.8433239506
 H         -1.0978172075       -4.5909676908        1.4937029107
 O         -1.6836888691       -1.4598844611        1.8339978903
 C         -2.2454689896       -0.3025649514        1.3208837201
 O         -2.3558511802        0.6256724086        2.1457009100
 O         -2.7783878988       -1.4170498821       -2.0855101998
 C         -3.1591483401        1.0050032779       -0.6128059201
 C         -2.0524639906        2.0235091685       -0.4800025702
 C         -2.2127675113        3.2929833685        0.0576793097
 C         -1.1154353617        4.1149004490        0.2586315497
 C          0.1615147985        3.6882460396       -0.0590034602
 C          0.3244578192        2.4344472896       -0.6290664000
 C         -0.7744538304        1.6267085191       -0.8550460300
 H         -0.6304929599        0.6411799891       -1.2824619299
 N          1.6391035294        1.9464546602       -0.8926592699
 S          2.1988206197        1.1384809407        0.4943201903
 O          1.4393546303       -0.0744384297        0.7096320704
 O          2.2198620892        2.0893052708        1.5762998102
 C          3.8670134200        0.7340532515        0.0103825905
 C          4.1882375606       -0.5670578184       -0.3231791194
 C          5.4821517908       -0.8544644078       -0.7297310092
 C          6.4248386503        0.1597806326       -0.7987689993
 C          6.0862966296        1.4619124125       -0.4606576595
 C          4.7953878295        1.7554732319       -0.0521297496
 H          4.4870493790        2.7488724518        0.2276285503
 H          6.8229007893        2.2471942329       -0.5141203495
 H          7.4304091605       -0.0665129169       -1.1163841992
 H          5.7477933813       -1.8662606877       -0.9906439091
 H          3.4231891110       -1.3236473988       -0.2495273193
 H          1.6159025098        1.2564727301       -1.6353223998
 H          1.0279625282        4.2957330001        0.1438181398
 H         -1.2564639222        5.0924413190        0.6943113695
 H         -3.1949748015        3.6301149580        0.3469424595
 H         -3.3233309799        0.7964409877       -1.6805168601
 C         -4.4677299904        1.4339906673        0.0113864197
 C         -5.4231824107        2.2910706868       -0.7629405005
 C         -5.7450329800        0.8497473966       -0.5106065003
 H         -6.5262637300        0.6090238063        0.1943956496
 H         -5.6715427296        0.1552482166       -1.3346965302
 H         -5.9884748312        3.0417088766       -0.2318107706
 H         -5.1376675708        2.5782659868       -1.7635479005
 H         -4.3866377005        1.5884529575        1.0813576497
