  62
        -98.94498319
 C         -0.9950751730       -1.1655536840       -0.2586480774
 C         -2.0450436366       -1.2884911140        0.6902218311
 C         -2.9317513767       -0.1308805819        0.8381948177
 C         -2.7100224275        0.9724414827        0.1016175457
 C         -3.5154047415        2.2426435586        0.1423798903
 C         -4.7856582200        2.2069831110       -0.7187677705
 C         -5.9210311527        1.3397198856       -0.1739255859
 H         -6.1213824588        1.6129016540        0.8625089884
 H         -6.8148877461        1.5812299072       -0.7526628967
 C         -5.6653099504       -0.1707943952       -0.2699609444
 H         -6.5549832913       -0.6668561790       -0.6647551813
 H         -4.8543196591       -0.3590826292       -0.9773563788
 C         -5.3252324061       -0.8414345153        1.0609498606
 H         -6.1828629686       -0.7756909053        1.7342672120
 H         -5.1271768140       -1.8994076282        0.8709718251
 C         -4.1000813494       -0.2496779021        1.7699737285
 H         -3.8127925987       -0.9259261669        2.5787054224
 H         -4.3463404614        0.7223507649        2.1963932697
 H         -5.1510031695        3.2331769437       -0.8021252868
 H         -4.5180470031        1.8673040964       -1.7219623727
 H         -3.7801925442        2.4758980997        1.1738828874
 H         -2.8664672143        3.0312032485       -0.2419838617
 O         -1.6843680237        1.0616770793       -0.7825405801
 C         -0.8111318878        0.0037221289       -0.9978401908
 O          0.0549703184        0.2528162904       -1.8597077494
 O         -2.2338144193       -2.3267126072        1.3790617337
 C         -0.0866634954       -2.3732238590       -0.4131871630
 C          1.1557388362       -2.2374645992        0.4348143983
 C          1.4801545544       -3.2019335396        1.3813947432
 C          2.6249598472       -3.0755961128        2.1481606252
 C          3.4604416522       -1.9856361175        1.9893782042
 C          3.1393854910       -1.0097371499        1.0502111430
 C          1.9954941936       -1.1437423957        0.2768194867
 H          1.7628417156       -0.3951632559       -0.4630767941
 N          3.9384729488        0.1260465731        0.9152811046
 S          3.8093784356        1.2363139910       -0.3131419376
 O          3.8146519586        0.6077273690       -1.6126279568
 O          4.9112225882        2.1452891696       -0.0641013665
 C          2.2869968551        2.1077220675       -0.0107931894
 C          1.8173758386        2.2292455227        1.2815845095
 C          0.6750700742        2.9786015566        1.5104105824
 C          0.0326427838        3.6005732799        0.4514791310
 C          0.5142334118        3.4656890308       -0.8402769315
 C          1.6518803518        2.7109460324       -1.0764817953
 H          2.0461426032        2.5648259244       -2.0692749831
 H          0.0049243355        3.9347952083       -1.6669397249
 H         -0.8505934785        4.1919956005        0.6361212838
 H          0.2890819845        3.0746281621        2.5128364522
 H          2.3373368944        1.7353953950        2.0860797949
 H          4.8095943710        0.1497572551        1.4200483004
 H          4.3518242815       -1.8826800753        2.5886705032
 H          2.8687938578       -3.8321478272        2.8783683836
 H          0.8229049172       -4.0472540464        1.5214609505
 H         -0.6663986251       -3.2204361104       -0.0207903468
 C          0.2962950581       -2.6806225482       -1.8475942831
 C          0.6568930896       -4.0868123134       -2.2183973829
 C         -0.6316334064       -3.4910595063       -2.6994585437
 H         -0.7276780837       -3.2340789366       -3.7436556076
 H         -1.5511854942       -3.8349778750       -2.2482664092
 H          1.4512707520       -4.2413223537       -2.9324696401
 H          0.6085197262       -4.8383279070       -1.4449207476
 H          0.8422145998       -1.8787878069       -2.3284053242
