  62
        -98.94489282
 C         -1.9359201233       -0.4526443307       -0.6517229485
 C         -2.9900123437       -1.2910027965       -0.2151523339
 C         -4.3368435872       -0.7146355498       -0.2862486813
 C         -4.5041268448        0.5324614021       -0.7629691886
 C         -5.8174781767        1.2497062888       -0.9214419762
 C         -6.3120664953        1.9375622373        0.3584504672
 C         -6.8303632589        0.9947041603        1.4451672278
 H         -7.3420855011        1.6115060596        2.1866537181
 H         -7.5717656193        0.3202090582        1.0156872165
 C         -5.7369294399        0.1802412244        2.1504816884
 H         -5.8975652526        0.2136497105        3.2304353662
 H         -4.7628778097        0.6359945990        1.9577028960
 C         -5.6835221324       -1.2929195942        1.7455819845
 H         -4.8526025203       -1.7645234972        2.2762811024
 H         -6.6054084193       -1.7912529036        2.0533498644
 C         -5.4797981184       -1.5275206757        0.2430213460
 H         -5.2364996188       -2.5817820072        0.0902069720
 H         -6.3952416986       -1.2972226279       -0.3013626312
 H         -5.5010686317        2.5485877949        0.7616368698
 H         -7.1242884088        2.6101977359        0.0732484190
 H         -6.5758668170        0.5518823311       -1.2776292866
 H         -5.6626210452        2.0148475810       -1.6852449546
 O         -3.4657149124        1.3011432488       -1.1869860008
 C         -2.1574767098        0.8403303038       -1.1254359138
 O         -1.3079444162        1.6611052783       -1.5206220730
 O         -2.8126565556       -2.4626707445        0.2129936460
 C         -0.5131230370       -0.9818773443       -0.5980022303
 C          0.3185206224       -0.1027532802        0.3017461979
 C         -0.0877348182        0.0618594798        1.6247581947
 C          0.6142636234        0.8835941759        2.4833733597
 C          1.7450259995        1.5514189159        2.0448420457
 C          2.1624952479        1.3913597693        0.7298394612
 C          1.4540413878        0.5619369760       -0.1312516660
 H          1.7910436506        0.4738362487       -1.1497592639
 N          3.2948075959        2.0739820887        0.2573434237
 S          4.4414814987        1.2922967640       -0.6725529598
 O          5.5860929583        2.1760772037       -0.6511299846
 O          3.9083002002        0.9701458087       -1.9707503237
 C          4.8088065684       -0.1953747011        0.2396427220
 C          5.6943080597       -0.1120454201        1.2968605175
 C          5.9410245112       -1.2439184973        2.0562009118
 C          5.2938920708       -2.4323575652        1.7526277604
 C          4.4080250068       -2.4991541110        0.6885563175
 C          4.1598374325       -1.3710457250       -0.0777729946
 H          3.4813652389       -1.3859240689       -0.9144279167
 H          3.9071854550       -3.4244576817        0.4521531336
 H          5.4826772536       -3.3128326979        2.3463551612
 H          6.6330731453       -1.1964088920        2.8814819248
 H          6.1839274026        0.8283372358        1.4918370191
 H          3.7373598490        2.6689093471        0.9424073594
 H          2.2912083541        2.2019265332        2.7109762341
 H          0.2823147520        1.0060114971        3.5033142370
 H         -0.9730865815       -0.4580012209        1.9647759386
 H         -0.5928167516       -1.9751656845       -0.1320276213
 C          0.0463804007       -1.1449523051       -1.9944484938
 C          1.0972622866       -2.1777544728       -2.2668719933
 C         -0.2984402995       -2.3761274649       -2.7756080841
 H         -0.4835825687       -2.2789956554       -3.8348595554
 H         -0.9196489966       -3.1140943055       -2.2893302409
 H          1.8768243397       -1.9438574766       -2.9771642745
 H          1.4177008296       -2.7912701115       -1.4381826421
 H          0.0953458125       -0.2099299134       -2.5417685421
