  62
        -98.93740695
 C          2.1640661765        1.3067454424       -0.1103120333
 C          2.5904254946        0.1983959462       -0.8790110935
 C          3.9820683656       -0.2399668360       -0.6702705641
 C          4.7599521699        0.4160212599        0.2073349728
 C          6.2098491925        0.1693292285        0.5410930450
 C          6.6534344170       -1.2876795087        0.7359461823
 C          5.5826426250       -2.2230009887        1.3164024592
 H          6.0085164065       -2.7672946808        2.1614317520
 H          4.7404697312       -1.6413483514        1.6953143540
 C          5.0761765961       -3.2533340280        0.3038896962
 H          5.9308100508       -3.6501275398       -0.2486318114
 H          4.6235639601       -4.0862769289        0.8473766459
 C          4.0326935447       -2.7427686586       -0.6892892078
 H          3.0860544002       -2.5600316318       -0.1726527372
 H          3.8486406038       -3.5343634039       -1.4198435193
 C          4.4090659161       -1.4555639242       -1.4410905536
 H          5.4703815684       -1.4322367016       -1.6763270652
 H          3.8432080662       -1.4357869085       -2.3764570385
 H          6.9996782500       -1.6935146239       -0.2136528926
 H          7.5176982785       -1.2675545616        1.4019479039
 H          6.8215999039        0.6274032837       -0.2414723551
 H          6.3888406404        0.7323481229        1.4601594153
 O          4.3055294865        1.4803476253        0.9277240776
 C          3.0075082708        1.9408696682        0.8016479551
 O          2.7290052296        2.9055744712        1.5420360601
 H         -1.0747961301        0.3423620819       -1.6866240279
 C         -1.0685622262        0.0959819927       -0.6369845679
 C         -0.2126753479        0.7607244698        0.2257639485
 C         -0.2211421718        0.4108056482        1.5739056894
 C         -1.0551540230       -0.5865366308        2.0413004162
 C         -1.8985365247       -1.2593295779        1.1738541878
 C         -1.8988924762       -0.9166549567       -0.1711445717
 N         -2.7553445434       -1.5930014457       -1.0551600978
 S         -4.3468233198       -1.8164853607       -0.5949601969
 O         -4.4398171975       -2.9252461087        0.3218505524
 O         -5.0840046552       -1.9543023245       -1.8311260667
 C         -4.7967238162       -0.3031534246        0.2364175954
 C         -4.7936472134        0.8654028028       -0.4996013273
 C         -5.0980342474        2.0583309724        0.1349145627
 C         -5.3954097555        2.0631858748        1.4893438651
 C         -5.3984122396        0.8813785442        2.2133848711
 C         -5.0946378114       -0.3151608166        1.5835125819
 H         -5.0857545317       -1.2558421322        2.1094107612
 H         -5.6326269552        0.8880524148        3.2657442005
 H         -5.6274189418        2.9942082952        1.9820917616
 H         -5.0989422524        2.9788298513       -0.4265626836
 H         -4.5647229600        0.8255738930       -1.5523344159
 H         -2.6813300310       -1.2892433586       -2.0144942110
 H         -2.5442473083       -2.0515721498        1.5162453441
 H         -1.0475375930       -0.8474735440        3.0887331759
 H          0.4454588453        0.9309342021        2.2485948999
 C          0.7439274318        1.8343062883       -0.2322624572
 H          0.6745940075        2.6728964437        0.4741313922
 C          0.4742900138        2.3511010246       -1.6292962805
 C         -0.6631578145        3.2987162758       -1.8608789281
 C          0.7504199837        3.7906414289       -1.9373992811
 H          1.1598508878        4.0404919926       -2.9047931248
 H          1.1234810518        4.4091940599       -1.1341133321
 H         -1.2519697513        3.5863707182       -1.0032919215
 H         -1.2266538022        3.2168665803       -2.7779741333
 H          0.7047626716        1.6271847584       -2.4017243333
 O          1.8577698315       -0.3942555480       -1.7131744628
