  62
        -98.93578078
 C          1.7383605842        1.1026396082        0.5975772346
 C          1.9908012631       -0.2808511397        0.7839408735
 C          3.3658484146       -0.7544466745        0.5515690482
 C          4.3076373771        0.1285766251        0.1713118956
 C          5.7897220078       -0.0386492284       -0.0922993623
 C          6.4077239037       -1.4285949798       -0.2155442031
 C          5.9874427381       -2.2042899591       -1.4639647315
 H          6.4434162597       -1.7288710135       -2.3361579417
 H          6.3894626535       -3.2170426366       -1.3899635118
 C          4.4840118210       -2.2823255600       -1.7176966923
 H          4.3309461707       -2.8353794300       -2.6484628525
 H          4.0852219322       -1.2776112426       -1.8723632949
 C          3.6709405612       -2.9761760338       -0.6269271003
 H          4.0750601981       -3.9741930845       -0.4463991254
 H          2.6496227455       -3.0900318622       -1.0001570121
 C          3.5919845318       -2.2300737103        0.7154336404
 H          2.7256737771       -2.6119971162        1.2632214506
 H          4.4728833446       -2.4190154222        1.3242623259
 H          6.2095385547       -2.0082722604        0.6811414079
 H          7.4905069206       -1.2849936233       -0.2658582251
 H          6.2948711319        0.4944798730        0.7207477589
 H          5.9973269943        0.5285312586       -1.0053668361
 O          4.0177645901        1.4498478233       -0.0020208464
 C          2.7474959568        1.9710662243        0.1862544661
 O          2.6792861590        3.1944080577       -0.0459377528
 O          1.0986506183       -1.0926272891        1.1484286925
 C          0.3177116662        1.5702532678        0.8557861656
 C         -0.4890249297        1.6570947643       -0.4177844450
 C         -0.1278495745        2.5122047150       -1.4535388021
 C         -0.9045849477        2.5902933426       -2.5947709712
 C         -2.0606022648        1.8388320098       -2.7162641076
 C         -2.4295575185        0.9810926140       -1.6869688713
 C         -1.6344043565        0.8867565672       -0.5533865002
 H         -1.9163793613        0.2075451558        0.2364136160
 N         -3.5858274738        0.1964564331       -1.7838944172
 S         -4.5124771649       -0.1231443920       -0.4284044980
 O         -5.8138381863       -0.4708999673       -0.9580305724
 O         -4.4817931658        0.9738835016        0.5101640636
 C         -3.7734411769       -1.5759051628        0.2854351324
 C         -3.5252670008       -2.6571514871       -0.5364273568
 C         -2.9700413258       -3.8010096677        0.0133257776
 C         -2.6778055250       -3.8460009679        1.3680741791
 C         -2.9373430707       -2.7538000013        2.1807625691
 C         -3.4911414024       -1.6061337457        1.6363330686
 H         -3.7013146381       -0.7310746150        2.2316058796
 H         -2.7058179072       -2.7890616707        3.2333274546
 H         -2.2422223681       -4.7361366779        1.7937744203
 H         -2.7643183769       -4.6528590709       -0.6147783448
 H         -3.7668645016       -2.5859173725       -1.5838593817
 H         -4.1511776866        0.3626511076       -2.6033464069
 H         -2.6727186422        1.9136066886       -3.6023089830
 H         -0.6139038303        3.2543524318       -3.3949908066
 H          0.7663104993        3.1085254028       -1.3553274435
 H         -0.1344368865        0.7826481099        1.4741545434
 C          0.2256562528        2.8815636162        1.6131201200
 C         -1.0856430244        3.2603417753        2.2321301824
 C          0.0680551824        2.8627635167        3.1023280563
 H          0.5639220501        3.6269418257        3.6819519156
 H          0.0310302699        1.8996373054        3.5901971103
 H         -1.3810639393        4.2983350086        2.2135873136
 H         -1.9111629296        2.5719825630        2.1213239492
 H          0.8263208893        3.6718778965        1.1825121162
