  62
        -98.94534727
 C         -2.4088086820       -0.1275045578       -0.0693359597
 C         -1.4953360072       -0.5838280134        0.9086523927
 C         -1.1143600497       -1.9991245713        0.8275375281
 C         -1.6051433457       -2.7605487417       -0.1664858152
 C         -1.3212340086       -4.2201038729       -0.4002038854
 C          0.1396843472       -4.5579375385       -0.7567712226
 C          0.9905202123       -4.9997024948        0.4406027975
 H          1.6255815626       -5.8326399233        0.1321421485
 H          0.3292627163       -5.3809174673        1.2199267413
 C          1.9119150926       -3.9287661147        1.0320608556
 H          2.7924173877       -3.8238622801        0.3935576425
 H          2.2515579105       -4.2828551012        2.0081155654
 C          1.3047641804       -2.5342398068        1.1935435415
 H          1.2592290493       -2.0377729681        0.2211100785
 H          1.9854967722       -1.9405626209        1.8082044639
 C         -0.1048593697       -2.5068427744        1.8167061929
 H         -0.1205528838       -1.8135079111        2.6601860721
 H         -0.3862969842       -3.4957345626        2.1764001777
 H          0.5955220422       -3.7008667296       -1.2545361332
 H          0.1126883562       -5.3749529059       -1.4798126829
 H         -1.9708609922       -4.5170919607       -1.2260596294
 H         -1.6230921141       -4.7866196637        0.4837096036
 O         -2.4734532252       -2.2799731429       -1.0982124448
 C         -2.8793489635       -0.9566002344       -1.0851934943
 O         -3.6538058075       -0.6437339960       -2.0144581301
 O         -1.0198303668        0.1575211356        1.8093945703
 C         -2.8233676468        1.3329621214       -0.0876905807
 C         -1.5936172136        2.2033319618       -0.1929930326
 C         -1.4195672816        3.3782892283        0.5277836413
 C         -0.2532469715        4.1132680234        0.3996643209
 C          0.7696564192        3.6831097184       -0.4259023297
 C          0.6003524596        2.5141065786       -1.1586712587
 C         -0.5852272883        1.8049697538       -1.0613342996
 H         -0.7037402155        0.9011791243       -1.6414916843
 N          1.6180230275        2.0140142489       -1.9984362306
 S          2.2544538912        0.5109391428       -1.6136371331
 O          3.3186202167        0.3005434893       -2.5721664546
 O          1.2098814736       -0.4805754277       -1.5996164776
 C          2.9640255736        0.7361134713        0.0082221416
 C          4.3330528758        0.8991962381        0.1059159448
 C          4.8954096672        1.1443126623        1.3477432640
 C          4.0808034844        1.2342574724        2.4667328419
 C          2.7091540821        1.0741477841        2.3503891649
 C          2.1385384319        0.8225303105        1.1114379181
 H          1.0734392110        0.6849329742        1.0110177316
 H          2.0658573786        1.1405458991        3.2132448597
 H          4.5159243165        1.4288559787        3.4343313596
 H          5.9627435196        1.2665471954        1.4383999356
 H          4.9249752485        0.8208266671       -0.7917240404
 H          2.3799519944        2.6631944694       -2.1420182373
 H          1.6902201698        4.2417139750       -0.5039185728
 H         -0.1315053840        5.0235993988        0.9663719106
 H         -2.1954502504        3.7150751343        1.1956212817
 H         -3.4216818495        1.4691180655       -1.0009333643
 C         -3.6850963268        1.6532703191        1.1164139555
 C         -4.7499823343        2.7039278796        1.0289781157
 C         -5.1294138424        1.2559126179        1.0957474975
 H         -5.5736195516        0.8775456002        2.0040570288
 H         -5.4972492377        0.7783298654        0.1988575061
 H         -4.9392025966        3.3203894774        1.8948338583
 H         -4.8734075030        3.2147731921        0.0859461138
 H         -3.1488396555        1.5406324723        2.0515088911
