  62
        -98.94511965
 C         -1.9711078409       -1.0021440906        0.0366047904
 C         -2.6317896809       -0.2217105003        1.0142995901
 C         -3.2283669109        1.0342200496        0.5428832997
 C         -3.0666557009        1.3949016192       -0.7435550904
 C         -3.6565759708        2.6250558890       -1.3688200509
 C         -5.0402316408        2.3363864588       -1.9682185808
 C         -5.9859724708        1.6055062392       -1.0152120105
 H         -6.9396229808        1.4846401490       -1.5332558005
 H         -5.5940528809        0.6040836492       -0.8237441202
 C         -6.2176890008        2.3221925196        0.3222474992
 H         -5.9229791708        3.3687687796        0.2379211289
 H         -7.2854069108        2.3029924497        0.5499129692
 C         -5.4975629009        1.6882551500        1.5136774394
 H         -5.8968237009        2.1331781703        2.4289507893
 H         -5.7166528009        0.6181386000        1.5469277498
 C         -3.9745488709        1.8687317900        1.5460534294
 H         -3.6215006709        1.5419428403        2.5288781295
 H         -3.7252082308        2.9256164699        1.4282301190
 H         -5.4875946808        3.2841685787       -2.2729601511
 H         -4.9080728908        1.7198484985       -2.8601873506
 H         -2.9862378008        2.9596458987       -2.1625065010
 H         -3.7298810908        3.4086657392       -0.6169420111
 O         -2.3768606609        0.6473942788       -1.6413382202
 C         -1.8078040309       -0.5644582511       -1.2784197198
 O         -1.2027203709       -1.1423900514       -2.1999372096
 O         -2.7119057409       -0.5574367698        2.2285048702
 C         -1.3259554810       -2.3120412005        0.4587627108
 C          0.1710241790       -2.1622849006        0.3463123108
 C          0.9791041090       -2.9718279409       -0.4395274889
 C          2.3391518290       -2.7266261409       -0.5300744690
 C          2.9199425190       -1.6763155007        0.1570580807
 C          2.1202623991       -0.8661680404        0.9527069504
 C          0.7631776690       -1.1178213304        1.0476408805
 H          0.1413858391       -0.4778835601        1.6628278002
 N          2.7070546491        0.2275722198        1.6386214200
 S          3.0354572591        1.5414502394        0.6317246096
 O          3.1807338392        2.6775092497        1.5166331192
 O          2.0407885492        1.6680011891       -0.4115068605
 C          4.6172394191        1.1290471891       -0.0688039303
 C          5.7207600091        1.1353576294        0.7622691197
 C          6.9564164191        0.7971642192        0.2342267499
 C          7.0657575291        0.4602897287       -1.1069472600
 C          5.9479643691        0.4603861285       -1.9276671400
 C          4.7085073391        0.7975592387       -1.4060738102
 H          3.8099501791        0.8057816985       -2.0026211902
 H          6.0341774291        0.1974279981       -2.9696897999
 H          8.0281293691        0.1961087985       -1.5160431899
 H          7.8280548391        0.7961272994        0.8685506399
 H          5.5883625191        1.4087193797        1.7957433396
 H          2.1275784391        0.5558806001        2.4002301799
 H          3.9776033690       -1.4810616908        0.0875680806
 H          2.9542238290       -3.3606556212       -1.1499683188
 H          0.5418934490       -3.7861831510       -0.9931012986
 H         -1.5775548310       -2.4304643901        1.5230590809
 C         -1.8919001110       -3.4839861607       -0.3120308088
 C         -1.8141310611       -4.8641882605        0.2670404417
 C         -3.1320970110       -4.1553366205        0.1941779714
 H         -3.8634152210       -4.4943611307       -0.5239878484
 H         -3.5632811710       -3.7786337002        1.1103423513
 H         -1.6422439111       -5.6945963308       -0.4005319780
 H         -1.3504700811       -4.9727813502        1.2357183317
 H         -1.7889079910       -3.3694648111       -1.3846916788
