  62
        -98.94456215
 C         -2.2853411878       -1.3517791114        0.0865206158
 C         -2.0706952600       -0.4484427005       -0.9823006425
 C         -2.9220456876        0.7507820458       -0.9875545292
 C         -3.8302967093        0.9258903376       -0.0112634105
 C         -4.6971064392        2.1403953404        0.1468596455
 C         -4.0173212160        3.1915892624        1.0363998571
 C         -2.5696589576        3.4941778998        0.6477679763
 H         -1.9585040756        2.6057766030        0.8236220586
 H         -2.2099720979        4.2708970750        1.3257027458
 C         -2.3844891310        3.9573739818       -0.8039322642
 H         -1.7075056828        4.8141403523       -0.8146222527
 H         -3.3387038654        4.2959695645       -1.2092744745
 C         -1.7860161292        2.9008852543       -1.7345334606
 H         -0.8850799218        2.4798839755       -1.2816041589
 H         -1.4923012557        3.3928260752       -2.6658252289
 C         -2.7140828297        1.7370283988       -2.1021882472
 H         -2.2407783274        1.1777355267       -2.9144903013
 H         -3.6699201505        2.1221614758       -2.4623986765
 H         -4.0252208626        2.8287516558        2.0668016312
 H         -4.6066344150        4.1094904468        0.9954072586
 H         -4.9096211312        2.5609031632       -0.8340949791
 H         -5.6361067556        1.8360352168        0.6121633461
 O         -4.0225304888        0.0268267809        0.9871208003
 C         -3.2528856716       -1.1197552581        1.0686745543
 O         -3.5222149749       -1.8483116191        2.0444219900
 H          0.7214807127       -2.0520582130       -1.3224397202
 C          0.9382684843       -1.9634466564       -0.2701378371
 C         -0.0554897647       -2.2234139657        0.6604735022
 C          0.2370713193       -2.0611310216        2.0118325595
 C          1.4996784396       -1.6711664529        2.4178361436
 C          2.4930179307       -1.4209393645        1.4866580027
 C          2.2028408481       -1.5531719502        0.1353221242
 N          3.1889061740       -1.2923532289       -0.8270176477
 S          4.3279262907       -0.0973585961       -0.5909417724
 O          4.8335086109        0.1968463117       -1.9127549942
 O          5.3033155880       -0.5458708442        0.3724697220
 C          3.4587300083        1.3203831112        0.0561489417
 C          2.5553724104        1.9655426215       -0.7651251657
 C          1.8860760392        3.0777598284       -0.2809589047
 C          2.1193741391        3.5162724267        1.0135502831
 C          3.0292796671        2.8579764726        1.8256735163
 C          3.7100985091        1.7518835582        1.3428598407
 H          4.4374137422        1.2222176268        1.9363312934
 H          3.2129353237        3.2039454335        2.8301231508
 H          1.5915234632        4.3792138721        1.3875938854
 H          1.1855159388        3.5986331173       -0.9139494883
 H          2.3959817703        1.6011962127       -1.7674801579
 H          2.8498052062       -1.3054644778       -1.7770571326
 H          3.4874055506       -1.1381995113        1.7896871762
 H          1.7161252207       -1.5625731865        3.4697309913
 H         -0.5420701902       -2.2410251400        2.7395036660
 C         -1.4535536527       -2.6155956369        0.2459446580
 H         -1.9079089869       -3.1676554108        1.0791282567
 C         -1.4946542931       -3.4904817647       -0.9900707688
 C         -1.0243842107       -4.9096237512       -0.8928622653
 C         -2.4839955583       -4.6129173371       -1.0581495052
 H         -2.9513111343       -4.8306939375       -2.0069330071
 H         -3.1351576487       -4.7587022190       -0.2084737684
 H         -0.6832744242       -5.2558306029        0.0712094377
 H         -0.4876607768       -5.3348792184       -1.7271328967
 H         -1.2978085192       -2.9541262953       -1.9092146997
 O         -1.2179887358       -0.6170802242       -1.8937149910
