  62
        -98.93068345
 C         -2.3558322139       -0.7813770264        0.3523349698
 C         -3.6632464284       -0.8109520885        0.8983136735
 C         -4.7726738615       -0.4402822634        0.0031270211
 C         -4.4997414851       -0.0509917058       -1.2558810079
 C         -5.4122170862        0.3456645763       -2.3975834251
 C         -6.8810930971        0.6754455638       -2.1454199019
 C         -7.1209064880        1.9476887416       -1.3332471204
 H         -6.8306196071        2.8080622378       -1.9415424254
 H         -8.1915548356        2.0282485290       -1.1329698179
 C         -6.3604634549        2.0413338203       -0.0126854360
 H         -5.2862620952        2.0653810415       -0.2082650983
 H         -6.6218146053        2.9937931610        0.4566412003
 C         -6.6573950822        0.9313180214        0.9937639746
 H         -6.1780753280        1.2064039486        1.9372450539
 H         -7.7331435123        0.8731271788        1.1705503672
 C         -6.1468334035       -0.4678851344        0.6079058730
 H         -6.8460293609       -0.9762837927       -0.0517630138
 H         -6.0680779497       -1.0614996808        1.5233974849
 H         -7.3397807956        0.8203578125       -3.1273643642
 H         -7.3839019729       -0.1703050208       -1.6857083032
 H         -5.3615422427       -0.4786967493       -3.1176401791
 H         -4.9299004222        1.2029138919       -2.8779783936
 O         -3.2209455803       -0.0025466403       -1.7277313178
 C         -2.1224888238       -0.3530537687       -0.9542753095
 O         -1.0369158057       -0.2370063002       -1.5507220078
 O         -3.8994791473       -1.1418862491        2.0911774742
 C         -1.2053448929       -1.1571115895        1.2694439850
 C         -0.1375407786       -0.0945607843        1.2198946373
 C         -0.3816728198        1.1322141159        1.8302639386
 C          0.5634294679        2.1397449559        1.7952621800
 C          1.7698224853        1.9486306689        1.1451215484
 C          2.0208088019        0.7310960812        0.5273616729
 C          1.0755664204       -0.2858047814        0.5783648603
 H          1.2735277054       -1.2223616881        0.0799184998
 N          3.2338114075        0.5383565221       -0.1646893327
 S          4.6549399035        0.8965654077        0.6739695432
 O          4.6610823371        0.2218600773        1.9544660697
 O          4.8163255761        2.3278183514        0.7194855492
 C          5.8771649811        0.1841247819       -0.4091053833
 C          6.3773708688       -1.0744405305       -0.1348770464
 C          7.3095691984       -1.6278898201       -0.9985132254
 C          7.7203360288       -0.9186416708       -2.1170722818
 C          7.2086361317        0.3437225942       -2.3790448859
 C          6.2775834732        0.9035138195       -1.5188860314
 H          5.8597119882        1.8839132549       -1.6771003556
 H          7.5323395110        0.8926661017       -3.2485903031
 H          8.4458461247       -1.3514910975       -2.7876161777
 H          7.7112857429       -2.6076949751       -0.7960211785
 H          6.0363381745       -1.5858248916        0.7510762281
 H          3.2882084860       -0.3897242498       -0.5631215691
 H          2.5175500471        2.7243067986        1.1117644964
 H          0.3604441032        3.0854107306        2.2757261407
 H         -1.3278189325        1.2874453321        2.3313507740
 H         -1.6486517380       -1.1416121265        2.2788498949
 C         -0.6632674943       -2.5632075314        1.0619044254
 C         -1.5849948712       -3.6874760837        0.6974232983
 C         -0.5594311031       -3.2112062824       -0.2849553056
 H          0.2928567345       -3.8461628960       -0.4799898847
 H         -0.8877953982       -2.6468047930       -1.1433202696
 H         -1.4409709031       -4.6466724895        1.1713660940
 H         -2.6205841271       -3.4402753799        0.5145586045
 H          0.1232848878       -2.7959624769        1.7741648444
