  62
        -98.94413872
 C          2.2003124940       -0.7822695158        0.0281075113
 C          2.8967420181       -0.0817187296       -0.9844802732
 C          3.6848089348        1.0756121018       -0.5403299939
 C          3.6679180001        1.4218085000        0.7601676516
 C          4.4629183689        2.5456420082        1.3578115503
 C          5.8314774920        2.0552188161        1.8510495546
 C          6.5951594604        1.2199628140        0.8234368200
 H          7.5561152387        0.9547838353        1.2693753882
 H          6.0537648581        0.2873587222        0.6487716511
 C          6.8324403382        1.9262461726       -0.5187581320
 H          7.8679593380        1.7609320881       -0.8234210725
 H          6.6975998916        3.0020362353       -0.4006793481
 C          5.9478455819        1.4279807156       -1.6631567745
 H          6.0090399820        0.3385084904       -1.7261630413
 H          6.3424771785        1.8322236065       -2.5992141418
 C          4.4677767658        1.8230649498       -1.5829731822
 H          4.3821587794        2.9012585884       -1.4320294178
 H          4.0043975817        1.5733215723       -2.5422828210
 H          6.4284966742        2.9245625768        2.1323165400
 H          5.6786783256        1.4439722413        2.7434047602
 H          4.5923882674        3.3290202815        0.6134902202
 H          3.9046742453        2.9492877305        2.2041614793
 O          2.9510071816        0.7506804427        1.6970112846
 C          2.2072722388       -0.3718206026        1.3615911583
 O          1.6084326551       -0.8961867669        2.3181420922
 H         -0.0574771723        0.1744230599       -0.8543107536
 C         -0.6609535955       -0.5803630505       -0.3637026109
 C         -0.0733152869       -1.7898006841       -0.0121924167
 C         -0.8641390891       -2.7540852726        0.5981599375
 C         -2.1981657330       -2.4993069250        0.8668799954
 C         -2.7720651781       -1.2867801102        0.5336649973
 C         -1.9946217994       -0.3198947177       -0.0909366135
 N         -2.5666464143        0.9203544815       -0.4274453491
 S         -3.9890031027        0.9140858066       -1.3221389408
 O         -4.0851787851       -0.2645816306       -2.1519238798
 O         -4.0097380477        2.1873985913       -2.0087944278
 C         -5.2721261118        0.8994389562       -0.0880663687
 C         -5.2843977691        1.9128414395        0.8501720403
 C         -6.2808222429        1.9206462589        1.8130614807
 C         -7.2435674189        0.9221440945        1.8200216292
 C         -7.2193499292       -0.0863590499        0.8689536608
 C         -6.2248841629       -0.1003908927       -0.0967675851
 H         -6.1625058059       -0.8667338092       -0.8528179946
 H         -7.9688487381       -0.8613323453        0.8759605559
 H         -8.0174205857        0.9307090417        2.5712613159
 H         -6.3029353067        2.7034724845        2.5540477899
 H         -4.5202606096        2.6710984684        0.8080575547
 H         -1.9067386518        1.5755939565       -0.8210594637
 H         -3.8080189272       -1.0824175037        0.7490514141
 H         -2.7986060892       -3.2561235469        1.3480233563
 H         -0.4355538443       -3.7050757829        0.8681870245
 C          1.3823211836       -2.0028290515       -0.3501278577
 H          1.4654458816       -2.0825474520       -1.4450529767
 C          1.9748253595       -3.2491033707        0.2738962235
 C          1.8382891669       -4.5762763212       -0.4087980939
 C          3.1667448619       -3.8842064897       -0.3752440595
 H          3.9450576182       -4.2868790723        0.2554686376
 H          3.5333180232       -3.4335958487       -1.2863317683
 H          1.3053401105       -4.6034217068       -1.3473085126
 H          1.7069350721       -5.4582571339        0.1996883217
 H          1.9497754769       -3.2225444166        1.3574890438
 O          2.8555721997       -0.4051290607       -2.2035592377
