  62
        -98.94119782
 C         -2.1430552693       -0.7762535107       -0.3574322409
 C         -3.1195165592       -0.6368000714        0.6647977193
 C         -3.6981786797        0.6997938183        0.8432088798
 C         -3.2589512801        1.7108715487        0.0723908601
 C         -3.7890699706        3.1141660285        0.1101524206
 C         -4.9418465308        3.2992359885       -0.8867664791
 C         -6.0164092204        2.2157528981       -0.7954900994
 H         -6.7917605306        2.4650309480       -1.5230055592
 H         -5.5847169701        1.2596977083       -1.1002142997
 C         -6.6492059402        2.0648430874        0.5949318107
 H         -6.4522059104        2.9568598472        1.1905842710
 H         -7.7320750802        1.9842588370        0.4796889008
 C         -6.1913207996        0.8277745073        1.3698681302
 H         -6.3004102294       -0.0594764426        0.7412082699
 H         -6.8525737295        0.7019502168        2.2312487503
 C         -4.7526353896        0.8669720776        1.9008667500
 H         -4.5912819198        1.7898927375        2.4618265803
 H         -4.6265563292        0.0231140074        2.5854555297
 H         -5.3929321611        4.2780363782       -0.7143081088
 H         -4.5291416710        3.2879996689       -1.8981519692
 H         -4.1264934206        3.3412904681        1.1196277208
 H         -2.9774571209        3.7948164989       -0.1528414192
 O         -2.3030368502        1.5501610594       -0.8748162701
 C         -1.7243230998        0.3135961297       -1.1206782606
 O         -0.8737747899        0.3438411803       -2.0338512107
 H          0.7505070406       -0.8814250194       -1.1669385013
 C          0.8698949210       -1.5200178097       -0.3040937715
 C         -0.2139142787       -2.2586388402        0.1493206184
 C         -0.0495699183       -3.0502677905        1.2797924981
 C          1.1681470818       -3.0982517503        1.9363487279
 C          2.2446977815       -2.3563424998        1.4837694880
 C          2.0861014911       -1.5551360795        0.3608463283
 N          3.1730381907       -0.7750613089       -0.1066002216
 S          3.6418190304        0.4783926509        0.9291340788
 O          4.0494393908       -0.0954634694        2.1860651085
 O          2.6066084901        1.4896811105        0.9978897392
 C          5.0638574301        1.1082059817        0.0602066688
 C          4.9297845996        2.2222192319       -0.7453214608
 C          6.0365552093        2.6833005925       -1.4410276008
 C          7.2500039296        2.0228467429       -1.3227032812
 C          7.3681565301        0.9044339427       -0.5108311516
 C          6.2660225603        0.4394606421        0.1884217184
 H          6.3118252507       -0.4196707281        0.8366110981
 H          8.3138532703        0.3948186530       -0.4210007119
 H          8.1090552194        2.3840485934       -1.8656791212
 H          5.9471128489        3.5536353527       -2.0711599805
 H          3.9682279394        2.7077140416       -0.8020668206
 H          2.9384021005       -0.3508044387       -0.9967112014
 H          3.1902593316       -2.3667819896        1.9999271579
 H          1.2795836022       -3.7173346206        2.8137318577
 H         -0.8916273580       -3.6138354509        1.6549763780
 C         -1.5519162088       -2.1650933805       -0.5449858914
 H         -2.2435892685       -2.8419070409       -0.0255941815
 C         -1.4596536389       -2.5945942599       -1.9955883816
 C         -1.3515925584       -4.0548995898       -2.3130469221
 C         -2.6160185787       -3.3122203801       -2.6217845216
 H         -2.8547475089       -3.1009873399       -3.6532875015
 H         -3.4818268686       -3.4996318707       -2.0034535516
 H         -0.7190762184       -4.3573173593       -3.1332520822
 H         -1.3602026981       -4.7473405301       -1.4850008023
 H         -0.9116997492       -1.9005087395       -2.6189846514
 O         -3.4949663688       -1.5956147618        1.3911843490
