  62
        -98.93924216
 C         -2.6519581687       -1.2778049505        0.3656660856
 C         -2.8906807316       -0.1465945244        1.1878411927
 C         -3.9636858260        0.7589638490        0.7614613364
 C         -4.6532555144        0.4739330404       -0.3581814631
 C         -5.7366047565        1.3327423231       -0.9420084064
 C         -5.1655115347        2.3366747710       -1.9531340539
 C         -3.9554353796        3.1148964970       -1.4360420116
 H         -3.1204494946        2.4251257028       -1.2902924306
 H         -3.6584720360        3.8142441577       -2.2206396401
 C         -4.2062466662        3.8865520055       -0.1328919919
 H         -5.2785008091        4.0036883568        0.0284329030
 H         -3.7813963857        4.8877439074       -0.2315808662
 C         -3.5736090302        3.2562940173        1.1094721728
 H         -2.5166770161        3.0499877621        0.9186792239
 H         -3.6210118868        3.9859900926        1.9224916175
 C         -4.2346080883        1.9668003907        1.6132193175
 H         -3.8131423488        1.7405176839        2.5971339736
 H         -5.3089768597        2.1251610441        1.7276006480
 H         -5.9570649664        3.0350579374       -2.2306005791
 H         -4.8627351871        1.7911733022       -2.8497410049
 H         -6.4516835765        0.6848481508       -1.4516066307
 H         -6.2467693288        1.8602738683       -0.1384508680
 O         -4.4027428251       -0.6198272025       -1.1180102487
 C         -3.3842844225       -1.5115931824       -0.7990872003
 O         -3.2609017294       -2.4397536824       -1.6175699168
 H          0.6578187131       -1.2597379968        2.0806121252
 C          0.7838967686       -1.2291255313        1.0067294085
 C         -0.2374178643       -1.6879689534        0.1894647273
 C         -0.0796837444       -1.6028035429       -1.1913316013
 C          1.0837559681       -1.0864090563       -1.7303549330
 C          2.1048905453       -0.6353992245       -0.9105895553
 C          1.9470979939       -0.6934945450        0.4669102413
 N          2.9734206930       -0.2291255647        1.3054889921
 S          3.6783735740        1.2559599505        0.9627044556
 O          4.2163200811        1.7147601159        2.2246268023
 O          2.7552051998        2.1438149810        0.2948811764
 C          5.0279605542        0.8409656370       -0.1230352125
 C          5.1825139362        1.5176041079       -1.3170532673
 C          6.2485599243        1.1895491658       -2.1403942604
 C          7.1368253342        0.1967390190       -1.7565122341
 C          6.9688040383       -0.4719612734       -0.5529880487
 C          5.9063379926       -0.1478300871        0.2753176233
 H          5.7424589890       -0.6418081761        1.2183588984
 H          7.6611765544       -1.2440721625       -0.2584764258
 H          7.9646542861       -0.0575101281       -2.3994239880
 H          6.3805451023        1.7087021587       -3.0761383024
 H          4.4630959698        2.2777383317       -1.5776429525
 H          2.7592566560       -0.3036246247        2.2897667625
 H          3.0081019201       -0.2224203032       -1.3290676677
 H          1.1967133846       -1.0290087704       -2.8024628723
 H         -0.8846866324       -1.9355650163       -1.8297159764
 C         -1.5203344422       -2.1957925978        0.7961606128
 H         -1.4483331063       -2.0525855294        1.8860153266
 C         -1.7897342774       -3.6723092178        0.5468022000
 C         -0.9409427545       -4.5358652464       -0.3335910177
 C         -0.8788297356       -4.6995218445        1.1531190837
 H         -1.3135302100       -5.5800840111        1.6011803730
 H          0.0053221173       -4.3375969859        1.6568018595
 H         -0.0942753190       -4.0894288005       -0.8302905145
 H         -1.4417712170       -5.2908220212       -0.9201783618
 H         -2.8500020769       -3.9002098962        0.5566544962
 O         -2.2353392211        0.0872562191        2.2402880423
