  62
        -98.94498037
 C          2.0587377845        1.3394654951        0.0229538531
 C          2.6485318278        0.6754431156        1.1247452602
 C          3.8214251107       -0.1514297982        0.8214894038
 C          4.2678157149       -0.2370047614       -0.4451392473
 C          5.4639104138       -1.0228363032       -0.9098573837
 C          5.1704072030       -2.5052785131       -1.1784455320
 C          4.9498969199       -3.3614329836        0.0693725021
 H          4.9689909898       -4.4051405597       -0.2506069496
 H          5.7818292788       -3.2172935437        0.7594149616
 C          3.6241972072       -3.0929224547        0.7954978117
 H          2.9459964224       -2.5565715227        0.1269581754
 H          3.1440932439       -4.0432766948        1.0406405235
 C          3.7644500790       -2.3056928218        2.0987009567
 H          2.7652210928       -2.1448880543        2.5119930945
 H          4.3351902309       -2.8933385959        2.8210629794
 C          4.4384659880       -0.9362900969        1.9398110843
 H          5.5079945376       -1.0610324824        1.7732243282
 H          4.2906658940       -0.3724289368        2.8640736770
 H          4.2950427304       -2.5761484636       -1.8285287991
 H          6.0236997579       -2.9125919508       -1.7255763324
 H          6.2672254710       -0.9364978802       -0.1777290511
 H          5.7932379029       -0.5632110887       -1.8441640245
 O          3.6711987490        0.4149097583       -1.4777123104
 C          2.5401999293        1.1954346790       -1.2785805827
 O          2.0758064785        1.6976828379       -2.3185784183
 O          2.2114896220        0.7650168378        2.3042244230
 C          0.8277840574        2.1967463001        0.2580948922
 C         -0.3534519404        1.5955325892       -0.4635478036
 C         -1.1823519498        2.3105032725       -1.3168398659
 C         -2.2359832780        1.6819612278       -1.9595810755
 C         -2.4934351380        0.3392202314       -1.7576131450
 C         -1.6845542377       -0.3801376865       -0.8855731473
 C         -0.6307766562        0.2508974252       -0.2438633559
 H          0.0014605018       -0.3122612813        0.4316454463
 N         -1.9489510153       -1.7398364365       -0.6542536397
 S         -3.5399067238       -2.2116970635       -0.4415128932
 O         -3.4742839889       -3.3958536601        0.3861121462
 O         -4.1733060603       -2.3782050026       -1.7259749449
 C         -4.3170801170       -0.8707022702        0.4428307216
 C         -3.7956770753       -0.5090765459        1.6693033101
 C         -4.3690561316        0.5488413120        2.3555562438
 C         -5.4490291223        1.2236361630        1.8068126834
 C         -5.9647371919        0.8446183281        0.5774222503
 C         -5.3937402595       -0.2116156713       -0.1144222339
 H         -5.7601927878       -0.5372457169       -1.0743158835
 H         -6.8058797203        1.3694314505        0.1541834462
 H         -5.8901255097        2.0493554627        2.3423627606
 H         -3.9684107706        0.8444946113        3.3119566471
 H         -2.9574108496       -1.0551805489        2.0719658405
 H         -1.3403993123       -2.1700092154        0.0258543279
 H         -3.2966324855       -0.1671126274       -2.2678246707
 H         -2.8633114441        2.2462812545       -2.6323069668
 H         -0.9969250803        3.3572399162       -1.4908683165
 H          0.6335023443        2.1327101355        1.3391340161
 C          1.0987144151        3.6413166319       -0.1019147358
 C          0.3350167460        4.7398081458        0.5734317388
 C          1.7802628153        4.5203943328        0.9021761648
 H          2.5067680752        5.2373048021        0.5501273188
 H          2.0290489298        4.0825531383        1.8579641574
 H          0.0691432375        5.6129584891       -0.0027828979
 H         -0.4003010226        4.4562487567        1.3108785340
 H          1.3717678998        3.7684313386       -1.1431712337
