  62
        -98.94489887
 C         -1.9135738480       -0.1344115404        0.0664497693
 C         -2.9187261582       -0.9932730822        0.5722740835
 C         -4.2366646172       -0.3831860360        0.7772467473
 C         -4.4151392361        0.9236484181        0.5110355881
 C         -5.6939448729        1.6957342160        0.6923473575
 C         -6.6693694999        1.5735584199       -0.4864373568
 C         -7.3723224503        0.2212739794       -0.6121132727
 H         -7.8304485693       -0.0387199853        0.3426573831
 H         -8.1790972785        0.3461620120       -1.3371029635
 C         -6.4630074724       -0.9242353483       -1.0785135549
 H         -5.5541828266       -0.5105702792       -1.5217981932
 H         -6.9685244190       -1.4950465325       -1.8607416607
 C         -6.0717314575       -1.9109581792        0.0215632236
 H         -6.9624175987       -2.4303525420        0.3819494511
 H         -5.3988911306       -2.6559837145       -0.4105750291
 C         -5.3612657110       -1.2695450226        1.2206606139
 H         -6.0740264616       -0.7083049607        1.8243247643
 H         -4.9338905055       -2.0673367485        1.8329919629
 H         -6.1289179832        1.7909851281       -1.4106834238
 H         -7.4323111271        2.3450329235       -0.3589502811
 H         -6.1886273208        1.3760500647        1.6099539574
 H         -5.4104858855        2.7452172836        0.7970894568
 O         -3.4152046427        1.7221021781        0.0506234448
 C         -2.1481032119        1.2139958691       -0.2016711503
 O         -1.3403785494        2.0511262162       -0.6470212784
 H          1.7691853121        0.6134655838       -1.0328519007
 C          1.6038279702        0.6569541756        0.0300199285
 C          0.4978149916        0.0514835910        0.6036415351
 C          0.3222183857        0.1525719304        1.9824858096
 C          1.2183065405        0.8582063972        2.7598846229
 C          2.3184265307        1.4683219709        2.1816308789
 C          2.5078646555        1.3683624352        0.8095655085
 N          3.6082674688        1.9893805145        0.1962363951
 S          4.5227611556        1.1612364581       -0.9310903458
 O          5.7492599172        1.9212245235       -1.0307235885
 O          3.7814592323        0.9851376047       -2.1529721821
 C          4.8441587433       -0.4149505779       -0.1615427569
 C          4.0541956378       -1.5027778648       -0.4720470572
 C          4.2730770062       -2.6992154262        0.1928092820
 C          5.2712900537       -2.7864426358        1.1505525711
 C          6.0602420937       -1.6851605603        1.4472958568
 C          5.8434786411       -0.4854753340        0.7897952882
 H          6.4405971610        0.3908658550        0.9834079615
 H          6.8393692315       -1.7580779839        2.1888578726
 H          5.4362495107       -3.7192258728        1.6664059861
 H          3.6619489750       -3.5571151326       -0.0384367774
 H          3.2912366982       -1.3977691842       -1.2253030178
 H          4.2031816273        2.5011075806        0.8313941928
 H          3.0162949024        2.0281256929        2.7855583094
 H          1.0630759136        0.9339998205        3.8255345291
 H         -0.5390375893       -0.3218049668        2.4330113759
 C         -0.5313516362       -0.7047947799       -0.1978579628
 H         -0.5695753011       -1.7383440626        0.1773879467
 C         -0.2515622421       -0.7387496138       -1.6849671037
 C          0.6470755807       -1.7912348570       -2.2592655454
 C         -0.8297293911       -1.8495875661       -2.5076691243
 H         -1.1996330613       -1.6204731510       -3.4958634278
 H         -1.4054793503       -2.6023631350       -1.9891048797
 H          1.2991332659       -1.5216144725       -3.0772195007
 H          1.0651630447       -2.5145349795       -1.5752894050
 H         -0.2325798347        0.2492422942       -2.1322870823
 O         -2.7209416371       -2.2072800038        0.8457596407
