  62
        -98.94469920
 C         -2.6230348170       -1.2561206157        0.1223506617
 C         -2.6428880363       -0.3006180536       -0.9226435436
 C         -3.4972273832        0.8735992870       -0.6999391170
 C         -4.2143881932        0.9841072042        0.4321286221
 C         -5.1424612716        2.1124270854        0.7909264828
 C         -4.4376862976        3.3242266888        1.4158004272
 C         -3.6051773373        4.1640748024        0.4461658269
 H         -4.2139205024        4.4307164627       -0.4183541205
 H         -3.3487859864        5.0908657125        0.9630066803
 C         -2.3087477460        3.4895395964       -0.0247467534
 H         -2.0592971980        2.6623907258        0.6447908423
 H         -1.4808301214        4.2001659420        0.0349580742
 C         -2.3507367069        2.9667376605       -1.4607271532
 H         -1.3940009853        2.4800432778       -1.6712888718
 H         -2.4587698506        3.8053422515       -2.1525677683
 C         -3.4749565467        1.9585872484       -1.7341697868
 H         -4.4362257319        2.4703819814       -1.7706797572
 H         -3.2883305027        1.4918770840       -2.7044499044
 H         -5.2108046540        3.9650185032        1.8458003984
 H         -3.8010931453        2.9760184396        2.2324821077
 H         -5.6959446105        2.4279152347       -0.0938164234
 H         -5.8496174694        1.7121283116        1.5205096045
 O         -4.1872271483        0.0348936289        1.4038040682
 C         -3.3791919112       -1.0820264037        1.2867424723
 O         -3.4285271250       -1.8493756650        2.2686167669
 O         -1.9967600472       -0.3991678536       -2.0007448392
 C         -1.7608332064       -2.5107418211        0.0861135352
 C         -0.3300484127       -2.1399743511        0.3959182243
 C          0.2213389595       -2.4237627448        1.6404063761
 C          1.5129828740       -2.0316838717        1.9449423424
 C          2.2777195989       -1.3435545123        1.0196338114
 C          1.7307920083       -1.0444508523       -0.2209109337
 C          0.4428705095       -1.4548548816       -0.5307022155
 H          0.0173392115       -1.1975609046       -1.4889704417
 N          2.4915340868       -0.3215860710       -1.1610446217
 S          3.0852270507        1.1676629589       -0.6527819690
 O          2.2623880760        1.7397452934        0.3886169583
 O          3.2400559548        1.9532140283       -1.8579035672
 C          4.6990054735        0.7736789394       -0.0102344132
 C          5.0255083386        1.1097975063        1.2888288317
 C          6.2889536564        0.7952689414        1.7651310486
 C          7.1983547121        0.1540656860        0.9380781371
 C          6.8556152205       -0.1745839329       -0.3652065670
 C          5.5949767044        0.1383456964       -0.8477887089
 H          5.2896574183       -0.0951746904       -1.8540183309
 H          7.5656459399       -0.6730732065       -1.0052486596
 H          8.1800288961       -0.0908696246        1.3116873026
 H          6.5569489002        1.0503467336        2.7778812167
 H          4.2829888050        1.6021353030        1.8966042551
 H          2.0165432733       -0.2162654103       -2.0472200920
 H          3.2810589286       -1.0267477245        1.2538028885
 H          1.9274970343       -2.2601480810        2.9150542665
 H         -0.3808803894       -2.9366408414        2.3766878748
 H         -2.1274350260       -3.1446684304        0.9041162391
 C         -1.8895785859       -3.2819627439       -1.2121671396
 C         -1.4715823185       -4.7201523018       -1.2447362692
 C         -2.9241602460       -4.3595632867       -1.3213024184
 H         -3.4401841135       -4.4837522055       -2.2615179750
 H         -3.5436831417       -4.5470537059       -0.4562085002
 H         -0.9874595769       -5.0955666962       -2.1330984134
 H         -1.1058435035       -5.1541592050       -0.3264937918
 H         -1.7077075907       -2.6828499457       -2.0941960987
