  62
        -98.94168062
 C         -2.7903489458       -0.6106405365       -0.2419288834
 C         -2.1893782767        0.3108095867       -1.1341370527
 C         -2.4573460774        1.7325031643       -0.8700990366
 C         -3.2608318063        2.0811652327        0.1497566996
 C         -3.5827007965        3.4903491269        0.5524518771
 C         -2.6032132893        4.0067502382        1.6151950250
 C         -1.1313574452        3.7797721360        1.2681230475
 H         -0.5363188623        4.2246327595        2.0691246163
 H         -0.9148571805        2.7081081286        1.2746184102
 C         -0.6948242358        4.3704996939       -0.0794827684
 H          0.2655408592        4.8718096176        0.0569833619
 H         -1.4134739403        5.1238158729       -0.4058408712
 C         -0.5008037220        3.3344926641       -1.1885182138
 H          0.1305884832        2.5222350442       -0.8160539692
 H          0.0332035249        3.8160668992       -2.0125495447
 C         -1.7892842182        2.7349774212       -1.7680939152
 H         -2.4807746898        3.5372829406       -2.0341359563
 H         -1.5247354078        2.1921012433       -2.6800953269
 H         -2.8132242169        3.4964160597        2.5580767769
 H         -2.7825272580        5.0739624972        1.7588535508
 H         -4.5927040877        3.5056772100        0.9657798072
 H         -3.5504549390        4.1297752118       -0.3274743591
 O         -3.8514226976        1.1698980477        0.9641950752
 C         -3.6077149989       -0.1824478116        0.8095638133
 O         -4.1818467552       -0.9021880188        1.6516418260
 O         -1.4630508987       -0.0093153802       -2.1141554344
 C         -2.5555332671       -2.1147194390       -0.3046338912
 C         -1.2254047402       -2.4225526746        0.3409456728
 C         -1.1497039608       -3.1179268275        1.5419452100
 C          0.0692618483       -3.3155256748        2.1682369247
 C          1.2350965192       -2.8114434805        1.6189370840
 C          1.1665231282       -2.1162299484        0.4200300003
 C         -0.0498254598       -1.9433303504       -0.2195365568
 H         -0.0916666396       -1.3840851822       -1.1425629804
 N          2.3475801484       -1.5425949694       -0.1238215550
 S          2.7722986794       -0.1142549496        0.6854259386
 O          2.9333933745       -0.4216574853        2.0841768525
 O          1.8357112597        0.9426921586        0.3682199087
 C          4.3612017718        0.2237580564       -0.0475393837
 C          4.4831972172        1.2155108304       -1.0006701921
 C          5.7220856817        1.4353435695       -1.5830726976
 C          6.8088137994        0.6608373178       -1.2070170944
 C          6.6692168981       -0.3331200843       -0.2494199804
 C          5.4343525769       -0.5567461210        0.3373604947
 H          5.2784237809       -1.3122413231        1.0892267201
 H          7.5168997892       -0.9328847962        0.0402011891
 H          7.7709899865        0.8336435563       -1.6627544444
 H          5.8332908255        2.2078118306       -2.3269849759
 H          3.6115153640        1.7957188584       -1.2591196712
 H          2.1956584906       -1.2887438853       -1.0935720184
 H          2.1845719571       -2.9238348610        2.1155770455
 H          0.1094850434       -3.8551456133        3.1024188630
 H         -2.0597141025       -3.4807934890        1.9980532526
 H         -3.3427216038       -2.5656071199        0.3140807131
 C         -2.6555241480       -2.6902462750       -1.7028396107
 C         -2.9158706417       -4.1567077492       -1.8640762410
 C         -3.9849183649       -3.1633355356       -2.2051145870
 H         -4.2293078940       -3.0006152920       -3.2439959296
 H         -4.8309213783       -3.0742387230       -1.5389676944
 H         -2.4248385886       -4.6806589383       -2.6695679877
 H         -3.0384324643       -4.7440098064       -0.9665945695
 H         -1.9986717044       -2.2119551916       -2.4166305143
