  62
        -98.93956889
 C         -1.6266145799       -1.4653331903       -0.0377087717
 C         -1.3613475498       -0.1221104304       -0.4074518619
 C         -2.5410077096        0.6975175295       -0.7358667825
 C         -3.7709055097        0.1629878895       -0.6446686328
 C         -5.0522763696        0.9052573895       -0.8876001034
 C         -5.5844936001        1.5305268897        0.4094962463
 C         -4.5355685604        2.3220685099        1.1911458965
 H         -5.0318915107        2.7408293500        2.0693588163
 H         -3.7661847605        1.6367690499        1.5550204569
 C         -3.8684725501        3.4520747197        0.3945039366
 H         -3.8259365403        4.3451966798        1.0215667164
 H         -4.4745624198        3.6978542196       -0.4783964537
 C         -2.4358744099        3.1539676797       -0.0523637828
 H         -1.9915137898        4.0861423196       -0.4125157728
 H         -1.8420372602        2.8232718898        0.8044100974
 C         -2.2897649295        2.1140869695       -1.1700264226
 H         -2.9368220692        2.3816040793       -2.0080999029
 H         -1.2507399594        2.1431527194       -1.5113316822
 H         -6.4228241100        2.1833426097        0.1597403758
 H         -5.9570887703        0.7299355098        1.0526722563
 H         -5.7919775694        0.2000884694       -1.2702929636
 H         -4.8824124093        1.6796749094       -1.6330146835
 O         -3.9884472098       -1.1209140004       -0.2620626927
 C         -2.9321931799       -1.9565017603        0.0610683679
 O         -3.2811423001       -3.0995297403        0.4183807579
 O         -0.2127813697        0.3821498396       -0.4773158815
 C         -0.5217266200       -2.4368902203        0.3457361488
 C          0.3701999196       -1.8132761001        1.3895543391
 C         -0.0385738709       -1.8168951799        2.7195383489
 C          0.7495564387       -1.2495214797        3.7032201391
 C          1.9529163988       -0.6521966697        3.3725351395
 C          2.3616241993       -0.6270964600        2.0454244796
 C          1.5794159897       -1.2177676801        1.0629979294
 H          1.9032938401       -1.1906936303        0.0365096595
 N          3.5818298395       -0.0212889900        1.6703256800
 S          3.4586146098        1.3906404098        0.7569524897
 O          4.7806370198        1.9830393398        0.8450515001
 O          2.3800174096        2.2299854299        1.2279488691
 C          3.1983597204        0.8581731995       -0.9170550303
 C          4.0165078006       -0.1344757106       -1.4200386699
 C          3.8629998711       -0.5181348608       -2.7418489899
 C          2.9042440514        0.0983433291       -3.5327022403
 C          2.0980249312        1.0975523592       -3.0118157008
 C          2.2454582307        1.4865398294       -1.6895218208
 H          1.6291764205        2.2458549995       -1.2377851712
 H          1.3508364214        1.5723866691       -3.6279948712
 H          2.7827202418       -0.2030728611       -4.5615247803
 H          4.4880663013       -1.2953691008       -3.1520036595
 H          4.7478720704       -0.5881022204       -0.7716185895
 H          4.1854577392        0.1719313701        2.4593408901
 H          2.5697134585       -0.1992062396        4.1350990596
 H          0.4232500783       -1.2663304095        4.7324097690
 H         -0.9865765810       -2.2717347198        2.9739768286
 H         -1.0467619702       -3.2832251402        0.8168511088
 C          0.2599111804       -3.0146315605       -0.8250610908
 C         -0.4465106591       -3.4008717307       -2.0898789710
 C          0.5327149809       -2.2674564107       -2.0937894908
 H          1.4890717611       -2.4185811008       -2.5724993404
 H          0.1608912109       -1.2598049107       -2.1820772111
 H         -0.1716175289       -4.3258076808       -2.5737615307
 H         -1.4995076691       -3.1675177307       -2.1577133214
 H          1.0412830303       -3.6871917504       -0.4839910704
