  62
        -98.95211757
 C         -2.3585958572       -0.3378728446        0.0406639984
 C         -1.5162076385        0.2295220339       -0.9432595839
 C         -1.5173376429        1.6954255014       -1.0265280301
 C         -2.2970296014        2.4001734747       -0.1867676336
 C         -2.4115203975        3.8969712217       -0.1718902941
 C         -1.4242865554        4.5405706778        0.8097659708
 C          0.0154307804        4.0499322933        0.6561862401
 H          0.6285743192        4.6190459937        1.3594233986
 H          0.0791165076        3.0028640065        0.9617026935
 C          0.5929329552        4.1965782802       -0.7584698355
 H          1.6094938461        4.5876508007       -0.6779848737
 H          0.0087622381        4.9214290366       -1.3275317229
 C          0.6827584378        2.8819375614       -1.5359782367
 H          1.1397825868        2.1233899630       -0.8954203838
 H          1.3443965979        3.0347419425       -2.3931432515
 C         -0.6450297344        2.3307250248       -2.0723870030
 H         -1.1857373475        3.1208144770       -2.5985845453
 H         -0.4124042302        1.5372726428       -2.7886831587
 H         -1.4580958695        5.6230525107        0.6688075773
 H         -1.7522915803        4.3201391448        1.8283948202
 H         -2.2354866544        4.2750933291       -1.1773763640
 H         -3.4281039840        4.1561626738        0.1306017235
 O         -3.0759229943        1.8213255195        0.7636647211
 C         -3.1111964215        0.4447252788        0.9138561312
 O         -3.8465268456        0.0445283886        1.8410072655
 O         -0.8095311280       -0.4588667005       -1.7267477523
 C         -2.4352062811       -1.8474833481        0.1856686597
 C         -1.0495596259       -2.4292235193        0.3242290082
 C         -0.6402668871       -3.5921890765       -0.3168475208
 C          0.6534783782       -4.0601772648       -0.1636592442
 C          1.5698683762       -3.3699505915        0.6084144738
 C          1.1661188387       -2.2120243493        1.2627350869
 C         -0.1413378876       -1.7710759280        1.1433645985
 H         -0.4416181982       -0.8717247194        1.6614588528
 N          2.0643807105       -1.4559828359        2.0452689724
 S          2.3846618404        0.1081484340        1.5318843381
 O          3.3532893488        0.6217127687        2.4770963871
 O          1.1554885950        0.8469787238        1.4139859841
 C          3.1707894699       -0.0987723917       -0.0567921921
 C          2.4067429103       -0.4200406942       -1.1610496089
 C          3.0487499949       -0.6397595988       -2.3708464780
 C          4.4283198908       -0.5393683137       -2.4566243472
 C          5.1802757826       -0.2175420458       -1.3364539948
 C          4.5477580538        0.0001554593       -0.1236995967
 H          5.0884916092        0.2551501485        0.7735064094
 H          6.2533734938       -0.1379529636       -1.4036790587
 H          4.9189524719       -0.7122139250       -3.4015694921
 H          2.4555920574       -0.8891004596       -3.2359967311
 H          1.3323245840       -0.4889114444       -1.0830219556
 H          2.9404807877       -1.9275460591        2.2257657616
 H          2.5872263303       -3.7184429700        0.7049189673
 H          0.9573694727       -4.9640854650       -0.6690495989
 H         -1.3332272784       -4.1294779800       -0.9434525494
 H         -2.9866936255       -2.0382955476        1.1183969856
 C         -3.2169030046       -2.4348151429       -0.9728716742
 C         -4.0335892944       -3.6774673265       -0.7867069846
 C         -4.7125449116       -2.3517738210       -0.9500721438
 H         -5.2323209361       -2.1457557024       -1.8736704807
 H         -5.1674947992       -1.8952654173       -0.0827774002
 H         -4.0922376148       -4.3834268207       -1.6014148133
 H         -4.0399735467       -4.1303391617        0.1932264923
 H         -2.7225410547       -2.2824398678       -1.9256462323
