  62
        -98.93714844
 C          1.8328891723        1.1104957345        0.2856565187
 C          2.4271135687        0.0682876443        1.0389674533
 C          3.8459381530       -0.2391979533        0.7746802606
 C          4.5005593632        0.4862209193       -0.1507967887
 C          5.9244385876        0.3427217552       -0.6191609625
 C          6.1220182512       -0.8580319243       -1.5575140666
 C          5.4417248067       -2.1462820918       -1.1023523560
 H          4.3695100845       -1.9691066844       -0.9984926686
 H          5.5713441614       -2.8882601716       -1.8947508516
 C          5.9849859379       -2.7464420278        0.1923370091
 H          7.0524765805       -2.9458245883        0.0748892642
 H          5.4825173550       -3.7059532444        0.3399780074
 C          5.7825423170       -1.9077245494        1.4564565660
 H          6.5064597176       -1.0992304145        1.5131803367
 H          5.9777750580       -2.5591784206        2.3133679194
 C          4.3700478187       -1.3610034320        1.6384764584
 H          3.6505513440       -2.1822592976        1.5393411797
 H          4.2619864076       -1.0103851498        2.6721977721
 H          5.7129470556       -0.5937489355       -2.5356962483
 H          7.1930675787       -1.0311801753       -1.6749757892
 H          6.1659581178        1.2557297922       -1.1678401952
 H          6.5942819122        0.2817995631        0.2333586332
 O          3.8918185422        1.4862883445       -0.8462926892
 C          2.5636758078        1.8266021218       -0.6622153471
 O          2.1852130343        2.7668471606       -1.3863526018
 O          1.7981881527       -0.5890039079        1.9133038964
 C          0.3678295415        1.4153429189        0.5544652618
 C         -0.4953435517        0.8339470363       -0.5399290971
 C         -0.6036235964        1.4346752348       -1.7904578362
 C         -1.3801531641        0.8581802758       -2.7784477236
 C         -2.0777795697       -0.3123948173       -2.5369957815
 C         -1.9750178939       -0.9222887333       -1.2930009189
 C         -1.1847218413       -0.3485814723       -0.3062023673
 H         -1.0980866110       -0.8456113576        0.6488595762
 N         -2.6709674908       -2.1143073766       -1.0183535862
 S         -3.6245741850       -2.1803503892        0.3562347670
 O         -2.8007207372       -2.2533534151        1.5347284674
 O         -4.5179748874       -3.2947606971        0.1284356423
 C         -4.5350558117       -0.6474668659        0.3222067643
 C         -5.6356554953       -0.5584096926       -0.5078407796
 C         -6.3059623668        0.6498149851       -0.6056212765
 C         -5.8599951671        1.7458405346        0.1173683969
 C         -4.7546547445        1.6401124697        0.9471001643
 C         -4.0825195455        0.4325380087        1.0522144680
 H         -3.2219725397        0.3063252504        1.6892546865
 H         -4.4105087986        2.4935323768        1.5094025036
 H         -6.3774680304        2.6886294665        0.0367394977
 H         -7.1692303272        0.7346404092       -1.2457790425
 H         -5.9545275388       -1.4370431747       -1.0449380124
 H         -3.1802527293       -2.4795960366       -1.8107895122
 H         -2.6878049626       -0.7583703405       -3.3080103834
 H         -1.4485184578        1.3299298779       -3.7468669630
 H         -0.0476496974        2.3361274481       -1.9918922862
 H          0.1334040109        0.8760739831        1.4826501721
 C          0.1003151537        2.8905203263        0.7745468618
 C         -1.1397814376        3.3010486510        1.5078272042
 C          0.2010387284        3.4511655664        2.1600763092
 H          0.6094173963        4.4427337769        2.2852416395
 H          0.4605470031        2.7697634257        2.9576630942
 H         -1.6581363501        4.1907914531        1.1858536932
 H         -1.7864187856        2.5143731193        1.8657072863
 H          0.4415171963        3.5198137673       -0.0363879357
