  62
        -98.93698041
 C         -1.1025729609       -1.5187643594        0.5963907102
 C         -1.9894284109       -1.2828855094       -0.4811843098
 C         -3.0642539303       -0.3088800087       -0.2254329502
 C         -3.1098626499        0.3486321518        0.9466233895
 C         -4.1930111894        1.2777678426        1.4352507192
 C         -4.4541048588        2.5746943924        0.6470158586
 C         -5.5061296789        2.4501105325       -0.4613032013
 H         -6.1707259793        1.6179898229       -0.2259529409
 H         -6.1222155284        3.3516575428       -0.4644366917
 C         -4.9518443191        2.2808112815       -1.8784381812
 H         -5.7760687993        1.9782212017       -2.5279650511
 H         -4.5886291386        3.2466430012       -2.2372437717
 C         -3.8099399696        1.2751185109       -2.0225988109
 H         -2.8901817994        1.7036783905       -1.6201450611
 H         -3.6345388198        1.1079318203       -3.0871386208
 C         -4.0589140203       -0.0753765687       -1.3254766502
 H         -5.0745375103       -0.1239256880       -0.9342930902
 H         -3.9286286008       -0.8918802991       -2.0385339899
 H         -4.8110191383        3.3087625829        1.3715604883
 H         -3.5216371886        2.9590437017        0.2357498383
 H         -5.1247214497        0.7090776531        1.4959169895
 H         -3.9021029292        1.5402259929        2.4549126390
 O         -2.1597072399        0.1786794118        1.9087653095
 C         -1.1498975304       -0.7527107888        1.7639156099
 O         -0.3649767004       -0.8133857288        2.7322209098
 H          2.0336192193       -1.1918788207        1.4847049298
 C          2.1293053392       -1.3403311112        0.4167026499
 C          1.1494367887       -2.0619687310       -0.2533825897
 C          1.2604194886       -2.2163947417       -1.6297198396
 C          2.3327979588       -1.6667789925       -2.3110874300
 C          3.3110794992       -0.9540441327       -1.6397989304
 C          3.2011885594       -0.7870263621       -0.2661431004
 N          4.1729591599       -0.0177150323        0.4191333092
 S          4.1203928607        1.6153369076        0.0397990484
 O          4.6291826107        1.8000644167       -1.2946337717
 O          4.8359967111        2.2923716477        1.0966287281
 C          2.3819621409        2.0075534385        0.0987251184
 C          1.6279702808        1.9009914984       -1.0522921515
 C          0.2581630909        2.0894819292       -0.9725007915
 C         -0.3261126489        2.3811138900        0.2494568784
 C          0.4434217613        2.4858613001        1.3968947583
 C          1.8119571311        2.2884466194        1.3241136783
 H          2.4448228412        2.3564957694        2.1947134482
 H         -0.0226971286        2.6997775308        2.3453375282
 H         -1.3937618688        2.5197794706        0.3151810884
 H         -0.3481912492        1.9970675591       -1.8599188414
 H          2.1208517306        1.6753271777       -1.9835663915
 H          4.1057162499       -0.1175541818        1.4232209092
 H          4.1434271494       -0.5054465034       -2.1575955206
 H          2.4069755187       -1.7933280331       -3.3804857799
 H          0.4899852382       -2.7449852915       -2.1667126393
 C         -0.0198757715       -2.5872643400        0.5414653306
 H          0.3190272885       -2.7145517397        1.5786514806
 C         -0.5374754722       -3.9196726499        0.0412263213
 C          0.2905717171       -5.1478331703        0.2653472018
 C         -0.9807585727       -4.9503071893        1.0336910717
 H         -1.8330357331       -5.5667473389        0.7900698121
 H         -0.9098726025       -4.7011079588        2.0827266516
 H          1.2252942972       -5.0300321705        0.7928769616
 H          0.3139819867       -5.9022767806       -0.5058111179
 H         -1.0999592823       -3.8505556401       -0.8799166187
 O         -1.9272829813       -1.8685543400       -1.5923363196
