  62
        -98.93688656
 C         -1.9405900470        0.8105388297       -0.5975963635
 C         -2.2293244312        0.1544142161        0.6212859064
 C         -2.5743898502       -1.2739123025        0.5256696121
 C         -2.5513253986       -1.8799799718       -0.6734693153
 C         -2.8135500646       -3.3303487251       -0.9952531098
 C         -4.0036049553       -4.0064162190       -0.2994733711
 C         -5.1959036978       -3.0834678250       -0.0077537482
 H         -5.0722582215       -2.1358110738       -0.5347311662
 H         -6.1066451417       -3.5509704467       -0.3864789332
 C         -5.3917495910       -2.8154473564        1.4864262398
 H         -6.4198912128       -2.4848385806        1.6516145446
 H         -5.2580445978       -3.7530461440        2.0301447619
 C         -4.4729714205       -1.7529031276        2.0884921592
 H         -4.6302312408       -1.7449896259        3.1696092884
 H         -4.7551259903       -0.7645466598        1.7159072482
 C         -2.9722286851       -1.9405264459        1.8111855524
 H         -2.4158688919       -1.4256034774        2.5992203943
 H         -2.6954843527       -2.9919654425        1.8217963920
 H         -3.6696910487       -4.4598838570        0.6326489484
 H         -4.3248835073       -4.8225544446       -0.9487713338
 H         -1.9003793164       -3.8927105291       -0.7783832751
 H         -2.9574295825       -3.3585375031       -2.0781645667
 O         -2.2330404827       -1.2146279769       -1.8214990611
 C         -1.9216637261        0.1333746851       -1.8139567185
 O         -1.6559513998        0.6081312571       -2.9392704129
 O         -2.1962899386        0.7299876436        1.7404408743
 C         -1.5665593843        2.2800234634       -0.5934944692
 C         -0.3380641799        2.5058957899        0.2561452533
 C         -0.1739875088        3.6191802478        1.0705255632
 C          0.9876644355        3.7825066264        1.8055750378
 C          2.0062270033        2.8506780739        1.7407084005
 C          1.8504629966        1.7304728633        0.9300381057
 C          0.6896804978        1.5735250503        0.1917049291
 H          0.5826091405        0.7048828509       -0.4430523993
 N          2.8490307355        0.7442067034        0.8793739458
 S          2.9721609142       -0.2668575501       -0.4605588696
 O          2.9900677727        0.5123444283       -1.6793230880
 O          1.9653049232       -1.2954431397       -0.3663903678
 C          4.5838339798       -0.9708020134       -0.1650358277
 C          4.6957749224       -2.0373650444        0.7067976528
 C          5.9516778775       -2.5643279682        0.9631883613
 C          7.0687591912       -2.0188993051        0.3478966218
 C          6.9408968538       -0.9499445444       -0.5262337461
 C          5.6877732374       -0.4176072255       -0.7862029567
 H          5.5377744382        0.4061245641       -1.4654425476
 H          7.8103034817       -0.5301083143       -1.0057985541
 H          8.0447096983       -2.4316390712        0.5486316288
 H          6.0540066894       -3.3972051621        1.6399407173
 H          3.7980504780       -2.4323298926        1.1533870080
 H          3.7507245023        1.0686001837        1.1998781446
 H          2.9096245773        2.9782400921        2.3170169367
 H          1.1019057201        4.6511386683        2.4361386867
 H         -0.9566622281        4.3575067273        1.1314140965
 H         -1.3048593986        2.5293055580       -1.6337098107
 C         -2.7530604833        3.1229802450       -0.1710730438
 C         -2.9464964461        4.4988198170       -0.7320644594
 C         -3.8441761959        3.3801060223       -1.1651459343
 H         -4.8677624661        3.3737967299       -0.8218971240
 H         -3.7136284682        2.9710816372       -2.1570041237
 H         -3.3587032011        5.2638193374       -0.0914455382
 H         -2.2131339361        4.8588340668       -1.4379448839
 H         -3.0443240336        2.9398721019        0.8567968680
