  62
        -98.94457917
 C          1.9727887393        0.7887470497        0.5472056012
 C          2.0013803382        0.0965562001       -0.6870177754
 C          2.1632048224       -1.3607173262       -0.5998544705
 C          2.2058183021       -1.9475148868        0.6097972137
 C          2.4039859413       -3.4169238058        0.8438803432
 C          3.8926421737       -3.7626391417        0.9918966738
 C          4.7753518351       -3.1769202177       -0.1101805332
 H          4.7687280555       -2.0876231435       -0.0290036289
 H          5.7978745715       -3.5086936669        0.0820775413
 C          4.3652171101       -3.5806746808       -1.5331528648
 H          5.2619615609       -3.8600384957       -2.0900779809
 H          3.7184467612       -4.4578798643       -1.4970209578
 C          3.6722489374       -2.4746093588       -2.3311588380
 H          3.6216778485       -2.7898627015       -3.3766388185
 H          4.2735378239       -1.5629428649       -2.2921993003
 C          2.2446284304       -2.1268210996       -1.8898569992
 H          1.8069991865       -1.4726977101       -2.6498586772
 H          1.6402366403       -3.0347544928       -1.8349920576
 H          4.2421478191       -3.3768536415        1.9522982407
 H          3.9942099486       -4.8493047751        1.0040478553
 H          1.8806936096       -3.6903742802        1.7619204503
 H          1.9696872366       -3.9705076467        0.0135095492
 O          2.1230268092       -1.2540336052        1.7752755038
 C          2.0077844404        0.1262879281        1.7725155368
 O          1.9511291090        0.6413469075        2.9094598535
 H         -0.5586496536        1.1270852610        0.9181403381
 C         -0.6245769515        1.9122845222        0.1774660469
 C          0.5082120567        2.6508434055       -0.1416024189
 C          0.3962749493        3.6658136130       -1.0824364488
 C         -0.8143613684        3.9051676133       -1.7100731573
 C         -1.9279573764        3.1389766255       -1.4215264330
 C         -1.8307624654        2.1346798187       -0.4638072583
 N         -2.9500405861        1.3562469854       -0.1197416489
 S         -2.7057327767       -0.2461241386        0.3512142630
 O         -2.3493666698       -0.2701168242        1.7489261054
 O         -1.7991487828       -0.9120440635       -0.5570833940
 C         -4.3622389403       -0.8769125758        0.1499989614
 C         -5.2951587608       -0.6068246544        1.1335878353
 C         -6.5943837178       -1.0592593112        0.9672552596
 C         -6.9377097729       -1.7696892613       -0.1736244970
 C         -5.9903848270       -2.0349748787       -1.1509664048
 C         -4.6892945112       -1.5836537022       -0.9916016631
 H         -3.9168514513       -1.7706262040       -1.7204153370
 H         -6.2589598742       -2.5901906496       -2.0351726922
 H         -7.9493878807       -2.1211242130       -0.3005370567
 H         -7.3325478122       -0.8568213454        1.7263461207
 H         -4.9778586604       -0.0595349505        2.0058906835
 H         -3.7016999998        1.4331901005       -0.7916737022
 H         -2.8646541468        3.3128814650       -1.9287933651
 H         -0.8866277150        4.6905408280       -2.4471109888
 H          1.2593529091        4.2593300738       -1.3355882325
 C          1.7974138135        2.2968946713        0.5603612898
 H          1.7011534958        2.5833958101        1.6184973781
 C          3.0160317472        2.9793616054       -0.0249573534
 C          3.4058716504        4.3519393503        0.4325984819
 C          4.2247646194        3.1652918051        0.8404719862
 H          5.2008750566        3.0328513046        0.3985911763
 H          4.1576931981        2.8206485615        1.8624667034
 H          2.7886515865        4.8218584469        1.1832938744
 H          3.8247950817        5.0367410335       -0.2891323825
 H          3.1789922127        2.7164002717       -1.0638124203
 O          1.9061682166        0.6677794454       -1.8054352076
