  62
        -98.94423861
 C         -2.0014964052       -1.3511069268        0.1349635925
 C         -2.2348156649       -0.4469502292        1.2014342323
 C         -3.0165063754        0.7525873807        0.8783276211
 C         -3.4536303754        0.9303053363       -0.3819109729
 C         -4.2562914897        2.1072213806       -0.8548638449
 C         -3.3553222559        3.2255607584       -1.3949772747
 C         -2.1984015909        3.5873802543       -0.4642503031
 H         -1.5136505694        2.7385584836       -0.4039360340
 H         -1.6557928528        4.4122933551       -0.9302236540
 C         -2.6233504534        3.9971272927        0.9527523419
 H         -2.0603076680        4.8862294045        1.2447468868
 H         -3.6794688092        4.2689421255        0.9605374956
 C         -2.3671475481        2.9360463745        2.0249098306
 H         -2.4814175092        3.4083360009        3.0043643425
 H         -1.3362436941        2.5800166212        1.9510997742
 C         -3.3000661750        1.7184566051        1.9942376713
 H         -3.1488179000        1.1584368327        2.9217860333
 H         -4.3394704497        2.0517930678        1.9624127065
 H         -3.9722304568        4.1078021772       -1.5753181001
 H         -2.9371930516        2.9010284201       -2.3503517362
 H         -4.8609649568        2.4795143307       -0.0299769951
 H         -4.9188491612        1.7692355525       -1.6535359265
 O         -3.1783707678        0.0625193365       -1.3864250968
 C         -2.4292844027       -1.0854858857       -1.1667387389
 O         -2.2338658633       -1.7618046410       -2.1929102588
 O         -1.8151114022       -0.6411584728        2.3751278740
 C         -1.2151917267       -2.6158471219        0.4439866712
 C          0.2049620485       -2.4292842996       -0.0313770255
 C          0.6651533915       -2.8926776339       -1.2571956199
 C          1.9728692196       -2.6558095702       -1.6447796807
 C          2.8449925248       -1.9623291478       -0.8247077743
 C          2.3900223468       -1.4829634287        0.3975911777
 C          1.0777363407       -1.7165348552        0.7822458080
 H          0.7172365432       -1.3381346248        1.7300329062
 N          3.2637114647       -0.7892672072        1.2547215117
 S          4.2131310797        0.4475351932        0.6533028922
 O          5.2195673609       -0.1020710204       -0.2190974808
 O          4.6927520901        1.1516972399        1.8199426010
 C          3.0992884461        1.4849856705       -0.2737186617
 C          2.9754917018        1.3139917222       -1.6375104934
 C          2.0661733710        2.0981329381       -2.3296259503
 C          1.3032190436        3.0348354891       -1.6504401330
 C          1.4417794831        3.1971807364       -0.2801265268
 C          2.3432491365        2.4109437542        0.4178217599
 H          2.4858318438        2.5117374049        1.4819940904
 H          0.8488946328        3.9290925755        0.2447621947
 H          0.5971661219        3.6438174370       -2.1927003368
 H          1.9550193633        1.9749016490       -3.3949631586
 H          3.5940638539        0.5842130433       -2.1327728879
 H          2.8334152955       -0.5095291556        2.1242586728
 H          3.8698511163       -1.7884341591       -1.1097476711
 H          2.3208232030       -3.0232543746       -2.5983383065
 H         -0.0066097076       -3.4225013199       -1.9121372626
 H         -1.1904392588       -2.6746772579        1.5410382537
 C         -1.8765503446       -3.8685577913       -0.0883306688
 C         -1.4274132011       -5.2017544685        0.4278225931
 C         -2.7707833509       -4.6622660969        0.8144777740
 H         -3.6527124603       -5.1201756193        0.3922421508
 H         -2.9067546475       -4.3067936527        1.8256254205
 H         -1.3848773906       -6.0333204498       -0.2586102414
 H         -0.6491965736       -5.2096950155        1.1762089308
 H         -2.1645857003       -3.7992133738       -1.1291849231
