  62
        -98.93768863
 C          2.1510789844        1.1902531880        0.4628974910
 C          2.3333318328        0.3374320850       -0.6521727685
 C          3.1624889209       -0.8570992820       -0.4214688213
 C          3.6485810964       -1.0925161287        0.8106897092
 C          4.5707724065       -2.2178348449        1.1853597949
 C          6.0057522693       -1.9004374429        0.7178867325
 C          6.5382994401       -2.8392544094       -0.3647251707
 H          7.4532432878       -2.3946018057       -0.7616706919
 H          6.8070472293       -3.7933104211        0.0935135730
 C          5.5817116041       -3.1304912900       -1.5250443879
 H          6.1770587034       -3.5799511110       -2.3226109408
 H          4.8522598094       -3.8826332337       -1.2205425497
 C          4.8293124771       -1.9208975965       -2.0946466506
 H          5.3753887471       -0.9988415046       -1.8945847488
 H          4.7790271295       -2.0323131343       -3.1796086399
 C          3.3801043642       -1.7731552967       -1.5938482446
 H          2.9678539694       -2.7606168336       -1.3664038593
 H          2.7728268803       -1.3451936992       -2.3972867097
 H          6.0261900162       -0.8719233960        0.3517218365
 H          6.6838041424       -1.9436037864        1.5714853050
 H          4.2179022346       -3.1454218892        0.7397578064
 H          4.5374840072       -2.3175146727        2.2705623851
 O          3.4095748484       -0.2732179024        1.8683954926
 C          2.6572488660        0.8814116001        1.7241382928
 O          2.5051319635        1.5318437162        2.7788578100
 O          1.8329121167        0.5612952636       -1.7848910508
 C          1.3261328136        2.4584047334        0.3235210482
 C         -0.0879045242        2.0980009962       -0.0645420871
 C         -0.7582143498        2.6510072833       -1.1466796220
 C         -2.0476302140        2.2479328148       -1.4506611614
 C         -2.6972420487        1.2996891823       -0.6824631086
 C         -2.0381067655        0.7453225646        0.4074388277
 C         -0.7474625168        1.1495207533        0.7083100898
 H         -0.2313012515        0.7132822407        1.5559068550
 N         -2.6957669404       -0.2090067251        1.2068392737
 S         -3.3404161215       -1.5565203890        0.4348087366
 O         -3.3803604737       -2.5879490467        1.4493807774
 O         -2.6187676066       -1.8735121302       -0.7758661364
 C         -5.0064673344       -1.0617312612        0.0476365098
 C         -5.8192757733       -0.6484374460        1.0851562017
 C         -7.1207319299       -0.2652810292        0.8032885797
 C         -7.5853471488       -0.3040298385       -0.5031131704
 C         -6.7576924862       -0.7243289730       -1.5329616838
 C         -5.4541679736       -1.1082148583       -1.2579981432
 H         -4.7722668485       -1.4367101046       -2.0262346839
 H         -7.1205631401       -0.7541056114       -2.5477844389
 H         -8.5987636044       -0.0053081536       -0.7199419878
 H         -7.7671596197        0.0622227679        1.6014842177
 H         -5.4196191591       -0.6368778935        2.0854330679
 H         -2.1539181822       -0.4979227354        2.0090622974
 H         -3.6992286867        0.9811560455       -0.9192614189
 H         -2.5538742015        2.6793303824       -2.3006492527
 H         -0.2677614767        3.3879395549       -1.7607264446
 H          1.2964388319        2.9109655220        1.3255225246
 C          1.9966233849        3.4249839225       -0.6290540018
 C          1.7640797340        4.8986730495       -0.4912448617
 C          3.0880898550        4.3100104815       -0.1094781911
 H          3.9419000165        4.5013722128       -0.7419605565
 H          3.3323682580        4.2319516801        0.9402620839
 H          1.7114933205        5.4986709912       -1.3869902213
 H          1.1100797339        5.2291682402        0.3013294357
 H          2.1181473552        3.0134315698       -1.6241074622
