  62
        -98.93809808
 C         -1.8368564240       -0.7556692133        0.7479827225
 C         -2.2114841915        0.3494549559       -0.0497182088
 C         -3.6578511360        0.6207566957       -0.1572261763
 C         -4.5315553871       -0.1746378025        0.4879721126
 C         -6.0414271120       -0.1179757006        0.5957186102
 C         -6.8606597508        0.7592346581       -0.3471981328
 C         -6.8506981911        0.3105127918       -1.8080293565
 H         -7.4043871318       -0.6284310162       -1.8868288217
 H         -7.3812791224        1.0600640986       -2.3992267538
 C         -5.4700470270        0.0828660846       -2.4184965827
 H         -4.9680207781       -0.7349405247       -1.8975798800
 H         -5.6110411651       -0.2347229015       -3.4552337678
 C         -4.5500917278        1.3022553276       -2.4282451613
 H         -5.0543820235        2.1402505229       -2.9135560034
 H         -3.6720767844        1.0482600938       -3.0285542631
 C         -4.0469697538        1.7640631724       -1.0494404825
 H         -3.1384782694        2.3546447034       -1.2021721787
 H         -4.7737776758        2.4062740791       -0.5574949810
 H         -7.8948857757        0.7121787961        0.0046044312
 H         -6.5476549571        1.7958714419       -0.2650342091
 H         -6.3841272259       -1.1538343880        0.5082034084
 H         -6.2534638031        0.1898934050        1.6256215000
 O         -4.1173193542       -1.2260455619        1.2551704455
 C         -2.7797645015       -1.5455326642        1.4020909578
 O         -2.5627054281       -2.5335550430        2.1321807567
 H          2.0340151576       -0.0819921174        0.0371099364
 C          1.6229199517        0.4499871820        0.8783039561
 C          0.4098676214        0.0630365514        1.4267289446
 C         -0.0885648348        0.7755523982        2.5145678962
 C          0.5942753456        1.8652318177        3.0175427024
 C          1.7912403049        2.2653815043        2.4502184532
 C          2.3075570800        1.5511321164        1.3758364477
 N          3.5447422409        1.9048743720        0.8260359964
 S          3.9776417128        1.5624439386       -0.7474646034
 O          5.1497716254        2.3834464674       -0.9716213489
 O          2.8922425264        1.7495726878       -1.6804838282
 C          4.4769068118       -0.1470163475       -0.7124924037
 C          5.1221229957       -0.6423894276        0.4032971709
 C          5.5455642366       -1.9618648248        0.4004115803
 C          5.3278409647       -2.7576721051       -0.7138214810
 C          4.6841814823       -2.2438634193       -1.8288528307
 C          4.2529872679       -0.9262727910       -1.8301189996
 H          3.7363517304       -0.4898188861       -2.6705731626
 H          4.5156242633       -2.8631855969       -2.6957032546
 H          5.6592569377       -3.7840023276       -0.7140521947
 H          6.0446066996       -2.3653688732        1.2666867540
 H          5.2759299477        0.0018604244        1.2525769559
 H          3.9402687671        2.7714588784        1.1575749954
 H          2.3213475657        3.1230667794        2.8352039524
 H          0.1894102516        2.4135993603        3.8549527777
 H         -1.0286043069        0.4679965189        2.9528314624
 C         -0.3721324062       -1.1188218770        0.9085152126
 H         -0.3402360293       -1.9106288308        1.6718086371
 C          0.1706797623       -1.6771371377       -0.3908543341
 C          1.2576676644       -2.7083878523       -0.3714292977
 C         -0.1388183320       -3.0983345932       -0.7499419598
 H         -0.3490132957       -3.3351080715       -1.7821630900
 H         -0.7235344824       -3.6692195768       -0.0431057078
 H          2.0107769691       -2.6783072234       -1.1441830577
 H          1.6280864071       -3.0244457691        0.5918773517
 H          0.1700631137       -0.9452125204       -1.1916184752
 O         -1.3805900625        1.0877371938       -0.6413514416
