  62
        -98.93473921
 C         -1.9187681881       -0.9952774363        0.6473137430
 C         -2.0234333050       -0.3404545083       -0.6055060832
 C         -2.6598599432        0.9843109921       -0.5766500260
 C         -3.0120440751        1.5374635165        0.5965770632
 C         -3.6378472007        2.8924489413        0.7875938235
 C         -5.1614231133        2.9106003004        0.6010633096
 C         -5.6419928452        2.7669571751       -0.8435724239
 H         -6.7052918070        3.0144887129       -0.8525673407
 H         -5.1312819025        3.5001933030       -1.4684338166
 C         -5.4563569397        1.3630326644       -1.4359292865
 H         -5.2911723278        0.6465635071       -0.6280360270
 H         -6.3715991444        1.0612167648       -1.9499246124
 C         -4.3114839071        1.2455376468       -2.4420580499
 H         -4.5290921004        1.8605696077       -3.3178533384
 H         -4.2474310896        0.2043551535       -2.7674391711
 C         -2.9397921173        1.6536664357       -1.8882921318
 H         -2.1716781239        1.3293781315       -2.5944655944
 H         -2.8817444897        2.7368328949       -1.7823543590
 H         -5.5245426532        3.8647827369        0.9898463834
 H         -5.5966587361        2.1159356208        1.2114948674
 H         -3.1758870982        3.6068052851        0.1052575786
 H         -3.4106127975        3.1968810585        1.8118073700
 O         -2.8087805140        0.9127192968        1.7884548286
 C         -2.2692262631       -0.3600817298        1.8392785894
 O         -2.1473340170       -0.8162926635        2.9975404414
 O         -1.6143670353       -0.8188631981       -1.6913941248
 C         -1.2991674564       -2.3847051750        0.7712124373
 C          0.1230133210       -2.2692633049        0.2800621590
 C          0.6289522619       -2.6694311151       -0.9497863417
 C          1.9457979005       -2.4052073167       -1.2915593049
 C          2.7852242069       -1.7189315649       -0.4342712835
 C          2.2868218102       -1.2973765072        0.7909966159
 C          0.9809462853       -1.5861209324        1.1403310079
 H          0.5981589725       -1.2377719859        2.0931724816
 N          3.1191245458       -0.5277159382        1.6489375383
 S          3.1071728215        1.1049250020        1.2168596745
 O          3.7064381473        1.8074631379        2.3312120274
 O          1.7814697707        1.5398993973        0.8303023264
 C          4.2015771035        1.1474881688       -0.1834858138
 C          3.6777486181        1.2943166257       -1.4525553330
 C          4.5423243329        1.2913183827       -2.5362066763
 C          5.9055733753        1.1407525369       -2.3315061261
 C          6.4151606186        0.9953633949       -1.0495032658
 C          5.5568220429        0.9971187744        0.0383196613
 H          5.9057287588        0.8910042233        1.0519809989
 H          7.4757227975        0.8788008426       -0.8952472430
 H          6.5746366911        1.1364703516       -3.1774801448
 H          4.1471435552        1.4022935215       -3.5331401891
 H          2.6099511860        1.4009417490       -1.5625523590
 H          2.8305957073       -0.5900505332        2.6170342333
 H          3.8075499165       -1.5062292419       -0.7006583453
 H          2.3166791244       -2.7293993514       -2.2517624551
 H         -0.0009627156       -3.1611061470       -1.6682846652
 H         -1.2349890066       -2.5610359732        1.8569774419
 C         -2.2392433122       -3.4616670533        0.2524182957
 C         -2.5216447788       -3.7760266525       -1.1842322613
 C         -1.7866818956       -4.7664565699       -0.3314369478
 H         -2.3093456344       -5.6622354359       -0.0302166931
 H         -0.7305736434       -4.9107274333       -0.4922302430
 H         -3.5469877879       -3.9947411125       -1.4478700681
 H         -2.0008130345       -3.2154567221       -1.9420532363
 H         -3.1049896680       -3.5150614486        0.9098106569
