  62
        -98.93489189
 C         -2.4418043054       -1.1825814581       -0.2481366772
 C         -2.1039431840        0.1864830245       -0.3533752386
 C         -3.0543311493        1.1459708106        0.2409371268
 C         -4.1656109495        0.6920371318        0.8491414073
 C         -5.2800215122        1.4235844617        1.5681361100
 C         -5.4575156881        2.9314359522        1.4085565910
 C         -5.8732597725        3.3833308280        0.0091438031
 H         -5.8786017841        4.4753713026       -0.0083540409
 H         -6.8948369190        3.0425280221       -0.1768545558
 C         -5.0015913488        2.8723486612       -1.1352459503
 H         -5.4067093194        3.2736862731       -2.0680922178
 H         -5.0748555413        1.7845595197       -1.1947647233
 C         -3.5277311947        3.2667341468       -1.0613902176
 H         -3.4413862950        4.3499888570       -0.9571085191
 H         -3.0640920185        2.9834061366       -2.0099903765
 C         -2.7189174217        2.5990768104        0.0649426220
 H         -2.8303549539        3.1339608577        1.0052029621
 H         -1.6601866634        2.6378754310       -0.2079303744
 H         -4.5588682916        3.4523548640        1.7257922723
 H         -6.2528978881        3.2244098584        2.0993487837
 H         -6.2051789295        0.9211052663        1.2683749580
 H         -5.1411096559        1.2027528647        2.6323869393
 O         -4.4355507151       -0.6431848621        0.9472760855
 C         -3.5953066059       -1.6021522528        0.4153391809
 O         -3.9805302061       -2.7754611723        0.5905910703
 H          0.9004053418       -1.1195012663       -1.3561752234
 C          0.8837789992       -1.6245326619       -0.4037033194
 C         -0.2662449004       -2.2773000306        0.0087288468
 C         -0.2725018733       -2.8950312143        1.2564779246
 C          0.8466650351       -2.8596323346        2.0664691775
 C          1.9925999941       -2.2011886759        1.6542523448
 C          2.0040937636       -1.5732724014        0.4167597504
 N          3.1621405617       -0.8968872167       -0.0160756169
 S          3.9192705347        0.1109870174        1.1096799598
 O          4.7365234842       -0.7062599056        1.9724992018
 O          2.9456003432        0.9482800285        1.7748956839
 C          4.9602374741        1.0868038514        0.0423050042
 C          4.4521442332        2.2495232423       -0.5056928309
 C          5.2528576309        2.9943151604       -1.3572121236
 C          6.5392651463        2.5642971938       -1.6470283484
 C          7.0343657790        1.3946439404       -1.0901165879
 C          6.2393708005        0.6454356077       -0.2372664147
 H          6.5823556726       -0.2653039131        0.2250368342
 H          8.0353738957        1.0650780583       -1.3169177830
 H          7.1598323448        3.1467977801       -2.3095188371
 H          4.8704560934        3.9047688215       -1.7900491329
 H          3.4492028650        2.5510734274       -0.2466566239
 H          2.9877481998       -0.3878748135       -0.8729631993
 H          2.8667048176       -2.1495436891        2.2831738061
 H          0.8276954889       -3.3432587736        3.0318889975
 H         -1.1754482063       -3.3892387449        1.5888755335
 C         -1.5356442817       -2.2682537480       -0.8077402484
 H         -2.0597760514       -3.2167766703       -0.6305388966
 C         -1.3127968162       -2.1050326709       -2.2964764706
 C         -0.7430039526       -3.2469355726       -3.0816143882
 C         -2.1814635682       -2.8634653793       -3.2524529682
 H         -2.4817920943       -2.3793582501       -4.1696548083
 H         -2.9379391014       -3.5111780350       -2.8337995103
 H         -0.5210781704       -4.1566758176       -2.5445188882
 H         -0.0545849868       -3.0301861766       -3.8839625452
 H         -1.0289369217       -1.0996258096       -2.5807840083
 O         -1.0602846314        0.6076595398       -0.9184970258
