  62
        -98.94078666
 C          1.1510801695        1.2690868933       -0.1945210991
 C          2.1219443586        1.0333707285        0.8108651703
 C          2.9972564160       -0.1424812427        0.6489293207
 C          2.8231010415       -0.9293304409       -0.4287551167
 C          3.6216495752       -2.1381848798       -0.8396018750
 C          4.9873736663       -1.7662562475       -1.4393840090
 C          5.7546314547       -0.6920861529       -0.6729490669
 H          6.6501935911       -0.4482656016       -1.2506795448
 H          5.1480690033        0.2138261596       -0.6203577292
 C          6.2001035405       -1.0871705823        0.7331818286
 H          6.8131162337       -0.2689309527        1.1199247297
 H          6.8339987556       -1.9747198728        0.6724907289
 C          5.0799365962       -1.3569088789        1.7405427377
 H          5.5351426579       -1.3720481379        2.7351868727
 H          4.6432650852       -2.3402353506        1.5881255683
 C          3.9871555922       -0.2931328601        1.7785360452
 H          3.3833995904       -0.4455108544        2.6812031419
 H          4.4506477981        0.6915255387        1.9078978423
 H          5.5931924170       -2.6716185156       -1.5059422867
 H          4.8219275344       -1.3960031501       -2.4540982566
 H          3.7453130657       -2.8135924067        0.0017690776
 H          3.0389136913       -2.6565340169       -1.6038854932
 O          1.8635336281       -0.6764995330       -1.3610128426
 C          1.0048244852        0.4016268025       -1.2764069042
 O          0.1872824520        0.4607040616       -2.2170787021
 O          2.2678740685        1.7885593138        1.8091776270
 C          0.2705119183        2.4971664384       -0.0249415955
 C         -1.0853100546        2.0865948155        0.4939674784
 C         -1.4342127372        2.3030108360        1.8222478407
 C         -2.6573582135        1.8771107941        2.3109505518
 C         -3.5530190757        1.2163883982        1.4884642470
 C         -3.2065148475        0.9869518909        0.1637907838
 C         -1.9900626059        1.4317224801       -0.3296991645
 H         -1.7224655011        1.2265157823       -1.3550556734
 N         -4.0865170974        0.2557458016       -0.6702876784
 S         -4.2317003284       -1.3591244313       -0.2421506874
 O         -4.8131641760       -2.0221824930       -1.3868342451
 O         -4.9780053470       -1.4428026293        0.9877905815
 C         -2.5603254448       -1.9241683644        0.0247786533
 C         -1.9949637127       -1.7823656087        1.2762200724
 C         -0.6771474957       -2.1662581123        1.4616320758
 C          0.0457238480       -2.6893736313        0.4012282641
 C         -0.5357274564       -2.8240404934       -0.8495098151
 C         -1.8490413569       -2.4297293606       -1.0442128012
 H         -2.3347518789       -2.5166784267       -2.0030745622
 H          0.0330859745       -3.2208472932       -1.6749941424
 H          1.0710320285       -2.9893412455        0.5502940221
 H         -0.2166606597       -2.0532488137        2.4301678301
 H         -2.5919768332       -1.3832190471        2.0796444662
 H         -3.8161754456        0.3048118378       -1.6437497827
 H         -4.4986293594        0.8518683243        1.8559177333
 H         -2.9139200109        2.0554646802        3.3441622844
 H         -0.7287324988        2.7937986984        2.4769206501
 H          0.7607825171        3.0953591470        0.7544648593
 C          0.1703933780        3.3357585549       -1.2833436008
 C         -0.2859715341        4.7585860447       -1.1723817835
 C          1.1445604579        4.4532850906       -1.4984046474
 H          1.4987885600        4.6417253522       -2.5008345888
 H          1.8891866789        4.6224614557       -0.7342839416
 H         -0.9172254794        5.1595694018       -1.9504463297
 H         -0.5115984685        5.1348481779       -0.1860541331
 H         -0.1361629299        2.7753737763       -2.1568272052
