  62
        -98.94490904
 C         -1.8693087467       -1.0716125541       -0.1954579725
 C         -3.0160336259       -1.1573729623        0.6397425713
 C         -4.2444213363       -0.5418994684        0.1293279620
 C         -4.2414451659        0.0414857712       -1.0825487675
 C         -5.4190673638        0.6886465204       -1.7590987414
 C         -5.6657024973        2.1416239560       -1.3304776824
 C         -6.2348634044        2.3166999258        0.0780637593
 H         -6.5629792254        3.3545288900        0.1639934874
 H         -7.1171052334        1.6862426756        0.1932627467
 C         -5.2364444757        2.0203557814        1.2059683906
 H         -4.2198897690        2.0291560979        0.8053206677
 H         -5.2893380675        2.8124160204        1.9563978845
 C         -5.4716571206        0.6945097493        1.9298947757
 H         -4.6858381107        0.5705448363        2.6793896400
 H         -6.4314771863        0.7267037104        2.4501781630
 C         -5.4533110070       -0.5370270309        1.0151336978
 H         -6.3634147136       -0.5747964348        0.4167596644
 H         -5.4088205100       -1.4300357649        1.6432738344
 H         -4.7279298945        2.6957721297       -1.4157437484
 H         -6.3730104131        2.5751021087       -2.0413636186
 H         -5.2074197590        0.6771206509       -2.8305106640
 H         -6.3166911034        0.0972630256       -1.5759900756
 O         -3.1309602842        0.0886532679       -1.8617355369
 C         -1.9195439019       -0.4408630782       -1.4383705663
 O         -0.9996401216       -0.2800626742       -2.2671757573
 O         -3.0120931938       -1.7346204301        1.7590024536
 C         -0.5961033897       -1.7054235451        0.3397439302
 C          0.3454575616       -0.6742606122        0.9142488719
 C          0.6876151070       -0.6897991440        2.2611153724
 C          1.5786525576        0.2371057990        2.7747501267
 C          2.1467536603        1.1962656825        1.9560303980
 C          1.8044474828        1.2234087853        0.6102845842
 C          0.9169181030        0.2903919736        0.0963207944
 H          0.6529527332        0.3205301773       -0.9503592933
 N          2.3939761824        2.1862435122       -0.2370627746
 S          4.0679335273        2.1120333853       -0.3224940925
 O          4.6293491206        2.7453337703        0.8444200387
 O          4.4243121763        2.6981259218       -1.5950204035
 C          4.4295855727        0.3656176679       -0.3016733289
 C          4.9284244063       -0.2202423863        0.8437267629
 C          5.1226648729       -1.5920161826        0.8630150282
 C          4.8116538709       -2.3497179373       -0.2550412099
 C          4.3130822337       -1.7454480279       -1.3989831180
 C          4.1148256168       -0.3749652051       -1.4236071012
 H          3.7300477509        0.1281496078       -2.2966636028
 H          4.0727018491       -2.3349984894       -2.2694167268
 H          4.9590544000       -3.4181198446       -0.2358165880
 H          5.5104144003       -2.0655513803        1.7503580775
 H          5.1565762138        0.4060576100        1.6902950474
 H          2.0022826621        2.1728521226       -1.1685998308
 H          2.8491901247        1.9220331545        2.3330959845
 H          1.8342647032        0.2119588287        3.8229484285
 H          0.2418209363       -1.4301891425        2.9090494722
 H         -0.9277086705       -2.3499613399        1.1646784248
 C          0.1267634997       -2.5648299052       -0.6802482722
 C          1.0982023945       -3.5978014828       -0.1970392581
 C         -0.2128293510       -4.0196705537       -0.7881472200
 H         -0.2185528761       -4.4750510051       -1.7670841076
 H         -0.9727340494       -4.4061117694       -0.1245962635
 H          1.9979317230       -3.7629391938       -0.7683762504
 H          1.2292313733       -3.6987044787        0.8693936888
 H          0.3615515705       -2.0399507567       -1.5968063898
