  62
        -98.94417509
 C         -0.8006579909       -1.1967584728        0.2873259820
 C         -1.5123185544       -0.3847072847        1.2059783364
 C         -2.4135326558        0.6170247324        0.6220012306
 C         -2.4470106102        0.7684082829       -0.7140396605
 C         -3.3905091122        1.6725337253       -1.4515676223
 C         -4.6875127540        0.9335013049       -1.8138087605
 C         -5.3208056179        0.1785910128       -0.6448781597
 H         -6.2419489664       -0.2777200554       -1.0138332231
 H         -4.6585132972       -0.6368986471       -0.3448492295
 C         -5.6371306166        1.0497015016        0.5789771165
 H         -5.6479156193        2.1017610672        0.2921517182
 H         -6.6385738097        0.8011607220        0.9366438457
 C         -4.6825074348        0.8565836078        1.7588353864
 H         -4.6023351170       -0.2075498587        1.9961478157
 H         -5.1148099519        1.3529782075        2.6317950811
 C         -3.2673779895        1.4164041510        1.5652314802
 H         -3.3292962901        2.4578782175        1.2441627349
 H         -2.7598020170        1.3808166357        2.5337945006
 H         -5.4007020190        1.6602580501       -2.2068771264
 H         -4.4660507241        0.2128404443       -2.6043680354
 H         -3.6171762602        2.5394264477       -0.8344139850
 H         -2.9061294249        2.0005055031       -2.3720708886
 O         -1.6540848870        0.0603727372       -1.5550646667
 C         -0.8262956457       -0.9517321563       -1.0866708704
 O         -0.1848227446       -1.5299875136       -1.9824208743
 H          1.6867769610       -0.2359165304        0.7145240967
 C          2.1317857921       -1.0922989759        0.2291356659
 C          1.4288096219       -2.2905736148        0.2017593294
 C          2.0130547267       -3.3900769275       -0.4117334440
 C          3.2671154115       -3.2814779408       -0.9877675192
 C          3.9583176869       -2.0851435978       -0.9677696291
 C          3.3790250847       -0.9757625318       -0.3594353709
 N          4.0276222920        0.2621985521       -0.3710293098
 S          3.6180468717        1.5172608961        0.6333190754
 O          4.6545674839        2.5018468539        0.4044615123
 O          3.4603824659        1.0855133148        2.0031747827
 C          2.0780378055        2.1439188086       -0.0029614474
 C          1.0960704658        2.5365737472        0.8843325838
 C         -0.0737795380        3.0891844327        0.3901407149
 C         -0.2412042683        3.2378591418       -0.9774185288
 C          0.7482953263        2.8266901137       -1.8563901725
 C          1.9227308214        2.2779127304       -1.3677747903
 H          2.7120826577        1.9511646947       -2.0242042534
 H          0.6085642684        2.9319495044       -2.9202709587
 H         -1.1489442226        3.6768759271       -1.3591234528
 H         -0.8473158514        3.3976400047        1.0747555964
 H          1.2597906802        2.3930959665        1.9411515811
 H          4.9742791716        0.2845777009       -0.7147378419
 H          4.9310298740       -2.0011436846       -1.4273336269
 H          3.7107078214       -4.1420845353       -1.4652601643
 H          1.4818573971       -4.3261595472       -0.4601077086
 C          0.0681188599       -2.3061718575        0.8511569396
 H          0.2039472942       -2.0353251664        1.9126624834
 C         -0.5956583884       -3.6759671739        0.8341016346
 C         -2.0879969234       -3.8144417656        0.8184154601
 C         -1.2868186957       -4.2092805934       -0.3837802819
 H         -1.1894502350       -5.2610095769       -0.6100874074
 H         -1.3169316010       -3.5751869002       -1.2558250678
 H         -2.5369910355       -4.5911057295        1.4193721489
 H         -2.6749779167       -2.9087245709        0.7675399932
 H         -0.0576570907       -4.3957482999        1.4434756260
 O         -1.4090736620       -0.5027221432        2.4569790639
