  62
        -98.94946510
 C         -2.0465742644       -0.4191309347       -0.3176450023
 C         -1.3671230771       -1.3311940301       -1.1581324575
 C         -0.9695514974       -2.6008480198       -0.5394981420
 C         -1.2147536005       -2.8094748050        0.7670127572
 C         -0.8720014796       -4.0511010002        1.5450717664
 C          0.5801703241       -4.0874553389        2.0407588188
 C          1.6238486182       -4.3940513615        0.9661370555
 H          2.5568319000       -4.6259476540        1.4837929611
 H          1.3252140086       -5.2859982929        0.4134104794
 C          1.8796052460       -3.2382186448       -0.0108662357
 H          1.5155648696       -2.3068375453        0.4309937608
 H          2.9564474184       -3.1164121071       -0.1551115463
 C          1.2571820800       -3.4298791684       -1.3939038428
 H          1.7099826833       -4.2984237878       -1.8779429031
 H          1.4904277726       -2.5514524967       -1.9991648153
 C         -0.2655902664       -3.6170049941       -1.3900543546
 H         -0.6265271873       -3.4938709649       -2.4145585570
 H         -0.5163895384       -4.6223371900       -1.0511912845
 H          0.8138895053       -3.1265786672        2.5069792954
 H          0.6439570058       -4.8586511762        2.8123362130
 H         -1.5338150495       -4.0642261694        2.4138326845
 H         -1.0746996008       -4.9354432666        0.9396388610
 O         -1.8449831903       -1.8956552894        1.5501663181
 C         -2.2655750278       -0.6795968906        1.0354902252
 O         -2.8270488395        0.0614888771        1.8659298284
 O         -1.1062831426       -1.0975691259       -2.3701068835
 C         -2.4870428149        0.9247361822       -0.8744943412
 C         -1.8432927969        2.0235606311       -0.0648520146
 C         -2.5256649002        3.1139463110        0.4558462856
 C         -1.8643476605        4.0265649805        1.2608523708
 C         -0.5285725013        3.8627696625        1.5766320700
 C          0.1690964444        2.7841201737        1.0410887520
 C         -0.4844459161        1.9047362701        0.1970415671
 H          0.0533659957        1.0671890240       -0.2151174894
 N          1.5246065784        2.5874965873        1.3305771650
 S          2.2761293314        1.0958062171        1.2363024472
 O          1.3749070177       -0.0043887331        1.4831260887
 O          3.3991806688        1.2147891016        2.1429481961
 C          2.8974282389        1.0718985182       -0.4329717118
 C          3.9715159608        1.8929976108       -0.7200051775
 C          4.4694264350        1.9237179676       -2.0118542955
 C          3.8863340828        1.1381635468       -2.9952546408
 C          2.8116969380        0.3174121695       -2.6922758351
 C          2.3117065681        0.2816508594       -1.3997485020
 H          1.4757050500       -0.3497926112       -1.1409117657
 H          2.3492505354       -0.2930655794       -3.4520380286
 H          4.2705669984        1.1629816348       -4.0027258040
 H          5.3073612546        2.5590609883       -2.2493021179
 H          4.4003441705        2.4780732992        0.0764110033
 H          1.8993677777        3.1629634245        2.0690033887
 H         -0.0285818110        4.5550276429        2.2367122824
 H         -2.4057257391        4.8664349245        1.6696991119
 H         -3.5764269948        3.2397309792        0.2523441884
 H         -2.0938918296        0.9645334152       -1.9012559689
 C         -3.9975150855        1.0126256687       -0.9235609727
 C         -4.6716664746        1.8792494078       -1.9439783465
 C         -4.7236526404        0.3876566807       -2.0756296824
 H         -5.6580569759       -0.1176163927       -1.8826192000
 H         -4.1241551621       -0.0819561193       -2.8416611496
 H         -5.5751400816        2.3989001715       -1.6627419166
 H         -4.0418816068        2.4262300547       -2.6289430328
 H         -4.4488960047        0.9277209438        0.0589181418
