  62
        -98.93240473
 C         -2.5352596463       -0.9934297271        0.1825893192
 C         -2.7619228463        0.0513632976        1.1087196896
 C         -3.3576324116        1.2816427329        0.5670794405
 C         -3.6419440631        1.3467492057       -0.7467205928
 C         -4.1684304028        2.5567870524       -1.4649926717
 C         -3.0259900445        3.5650271030       -1.7034478557
 C         -3.1829101941        4.8863314332       -0.9501902018
 H         -2.2309314925        5.4169132456       -1.0191224881
 H         -3.9363798678        5.4946188262       -1.4547970613
 C         -3.5846213281        4.7718609583        0.5234874474
 H         -4.6578245112        4.5910366736        0.5985907250
 H         -3.4010310161        5.7469860079        0.9795626916
 C         -2.8483695678        3.7007689035        1.3385429327
 H         -1.8816656447        3.4726454420        0.8888321534
 H         -2.6490174262        4.1073361386        2.3321367645
 C         -3.6379022382        2.3935492582        1.5403138878
 H         -3.3815148124        1.9785989033        2.5196809387
 H         -4.7093813471        2.6112918567        1.5468886605
 H         -2.9527799411        3.7858722537       -2.7693200896
 H         -2.0852411228        3.0896896201       -1.4172748938
 H         -4.5789457462        2.2162399502       -2.4156680632
 H         -4.9666994686        3.0121071820       -0.8831828050
 O         -3.4016902071        0.3235554650       -1.6071271450
 C         -2.8372335300       -0.8670192111       -1.1733058883
 O         -2.6624865532       -1.7095623549       -2.0725338236
 H          0.0652672883       -0.5201108755        0.5794529519
 C          0.3484169238       -1.4307530780        0.0649935984
 C         -0.5627445554       -2.4792092760        0.0086998541
 C         -0.1850891234       -3.6480963644       -0.6368726050
 C          1.0636104967       -3.7483732843       -1.2273195712
 C          1.9584874568       -2.6958140982       -1.1870806923
 C          1.5962876606       -1.5251755739       -0.5317195787
 N          2.4865002586       -0.4316516184       -0.4952380482
 S          4.0796498091       -0.7487804411       -0.0258916752
 O          4.7623346793       -1.3885193289       -1.1214387319
 O          4.0957912958       -1.4634449921        1.2318877219
 C          4.6993094908        0.9072304946        0.1885190741
 C          5.0945527466        1.6146769999       -0.9308429247
 C          5.5507399464        2.9137699701       -0.7747376990
 C          5.6028416862        3.4805571532        0.4902499585
 C          5.2045115080        2.7571431513        1.6042783647
 C          4.7458413537        1.4576084289        1.4550920750
 H          4.4336161044        0.8559755998        2.2938179845
 H          5.2489342032        3.1991154198        2.5866727839
 H          5.9589255060        4.4916438782        0.6093997982
 H          5.8638727546        3.4788414599       -1.6377676052
 H          5.0443468034        1.1302683466       -1.8919102248
 H          2.1139162327        0.3260439055        0.0621415822
 H          2.9322415888       -2.7670948881       -1.6433971884
 H          1.3430548887       -4.6612481476       -1.7316225319
 H         -0.8682974429       -4.4798227908       -0.6848588718
 C         -1.9045522251       -2.2845270172        0.6727575904
 H         -1.7299722264       -2.1338970978        1.7487655075
 C         -2.8534556255       -3.4497541050        0.4941621583
 C         -2.7531880531       -4.6452768787        1.3923590706
 C         -3.9022218028       -3.6944540239        1.5359645781
 H         -4.8822088276       -4.0146659601        1.2155771607
 H         -3.9169808285       -3.0332875816        2.3902134137
 H         -2.9462841641       -5.6218909085        0.9749115247
 H         -1.9879402909       -4.6350183103        2.1538362831
 H         -3.1315123514       -3.6068398058       -0.5417151462
 O         -2.4710233712       -0.0379383487        2.3333608024
