  62
        -98.94565550
 C          1.1396125435        1.4448064689        0.7461746677
 C          2.0218826026        1.4031475374       -0.3599248594
 C          2.9955056546        0.3020097363       -0.3589317667
 C          2.9758677693       -0.5970026303        0.6418563401
 C          3.8781679259       -1.7927913857        0.7332501142
 C          3.2514829072       -3.0231664736        0.0631065234
 C          2.6950598051       -2.7555429211       -1.3348399787
 H          2.3036994632       -3.7013145791       -1.7146440166
 H          1.8508513421       -2.0660979401       -1.2575007051
 C          3.7204905026       -2.1962823398       -2.3308095878
 H          4.7314582883       -2.3871343863       -1.9685717472
 H          3.6114734134       -2.7246036312       -3.2803020539
 C          3.5656527083       -0.7047696220       -2.6319213532
 H          2.5292879388       -0.4894074057       -2.9047710158
 H          4.1882615084       -0.4658466021       -3.4983846679
 C          3.9717524725        0.2471288088       -1.5000835717
 H          4.9708390805       -0.0102534124       -1.1424447068
 H          4.0045579705        1.2591802758       -1.9141412934
 H          4.0071653430       -3.8090169029        0.0117173049
 H          2.4312167308       -3.3737562284        0.6907733514
 H          4.8308478607       -1.5549441337        0.2635858496
 H          4.0499023081       -2.0129069696        1.7881424310
 O          2.0960653255       -0.5375788882        1.6747744115
 C          1.1580888145        0.4788410445        1.7522423426
 O          0.4094391196        0.4145544963        2.7480974319
 H         -1.2727951886        0.3244072641        0.2721843184
 C         -1.4859075799        1.0918273249       -0.4587072158
 C         -0.8791858314        2.3359401276       -0.3310732660
 C         -1.1633764935        3.3147286304       -1.2729630050
 C         -2.0223733900        3.0414540345       -2.3240151584
 C         -2.6286313723        1.8047062590       -2.4433643913
 C         -2.3608808743        0.8216206210       -1.4967073483
 N         -2.9504026635       -0.4500386544       -1.5781150251
 S         -3.5301239467       -1.1615615836       -0.1752851692
 O         -4.5330950482       -2.0984864977       -0.6382341782
 O         -3.9828283978       -0.1665201616        0.7685471683
 C         -2.1667961892       -2.0901514772        0.4916395807
 C         -1.5565950695       -3.0320722033       -0.3135156714
 C         -0.5476933407       -3.8152144730        0.2221264060
 C         -0.1704233138       -3.6463866010        1.5464330563
 C         -0.7845374462       -2.6895192503        2.3380210643
 C         -1.7958241557       -1.9046106531        1.8078815457
 H         -2.2906360374       -1.1450604408        2.3924494280
 H         -0.4780911960       -2.5386343137        3.3605086928
 H          0.6035905497       -4.2677142942        1.9700444407
 H         -0.0606478491       -4.5567107161       -0.3906433963
 H         -1.8845490418       -3.1407448404       -1.3339518567
 H         -3.5964263283       -0.5679351077       -2.3455085384
 H         -3.3022817214        1.5966727386       -3.2609373555
 H         -2.2277806885        3.8063893683       -3.0575924394
 H         -0.7048558167        4.2863527433       -1.1928150237
 C          0.0729582746        2.5236452459        0.8256925759
 H         -0.4864080847        2.3333711802        1.7535226668
 C          0.6918391042        3.9021655775        0.9021770036
 C         -0.0766637015        5.0324444501        1.5159517398
 C          1.0950082617        4.4420935769        2.2400158066
 H          2.0040794770        5.0202689865        2.3101134828
 H          0.9044149686        3.8223654401        3.1044041383
 H         -1.0657017178        4.8173420131        1.8921319736
 H          0.0283459923        6.0195767567        1.0918649224
 H          1.3395861224        4.1189040909        0.0612532600
 O          2.0059822336        2.2411297062       -1.2988753592
