  62
        -98.93970371
 C          2.2081805502        1.0597418115       -0.6347606488
 C          1.0265869304        1.1241610612       -1.4186229292
 C          0.1015589297        2.2291612906       -1.1528195291
 C          0.4178036589        3.1206558904       -0.1971788887
 C         -0.4635950219        4.2402095197        0.2785897714
 C         -1.5350208319        3.6824402888        1.2382145809
 C         -2.9686352918        3.7838612582        0.7149162004
 H         -3.5924882917        3.1693492476        1.3680869200
 H         -3.3087523524        4.8181021380        0.8071243007
 C         -3.1833283211        3.3452330986       -0.7369795798
 H         -4.2584192310        3.2107808980       -0.8734291702
 H         -2.8808373113        4.1492610990       -1.4099677394
 C         -2.4667956502        2.0544741591       -1.1548692300
 H         -3.1423849397        1.4744651090       -1.7875208504
 H         -2.2440346402        1.4413461690       -0.2802866702
 C         -1.1687372401        2.2791048401       -1.9544788995
 H         -1.0682828494        1.4815726304       -2.6962023598
 H         -1.2269923304        3.2282324103       -2.4945009792
 H         -1.4816931825        4.2127073085        2.1909907111
 H         -1.2972922914        2.6370496989        1.4503891306
 H         -0.9282115319        4.7336780298       -0.5724587886
 H          0.1721162175        4.9586527499        0.7971748819
 O          1.5718160287        3.0540267708        0.5097390017
 C          2.4798986293        2.0089944614        0.3488492016
 O          3.4539105090        2.0869829016        1.1205452319
 O          0.7587448611        0.2666301313       -2.3052171096
 C          3.0618696109       -0.1774697679       -0.8780304090
 C          2.2441978815       -1.3961636385       -0.5204276597
 C          2.2918947424       -2.5589251682       -1.2802991500
 C          1.5030535329       -3.6474996987       -0.9521170607
 C          0.6220872025       -3.5827518796        0.1129341191
 C          0.5607711416       -2.4207643299        0.8724661494
 C          1.3963736611       -1.3549842793        0.5768291401
 H          1.3383881204       -0.4604869996        1.1798061804
 N         -0.3627784189       -2.2732161208        1.9293820692
 S         -1.5375958894       -1.0922826213        1.7204352492
 O         -0.9178311501        0.1923652091        1.5272424898
 O         -2.4038889497       -1.2179055622        2.8728174289
 C         -2.4239721987       -1.6031522313        0.2585165287
 C         -3.6341845784       -2.2514710521        0.4166666481
 C         -4.3050385877       -2.7073698320       -0.7061351123
 C         -3.7514506374       -2.5173619213       -1.9635800120
 C         -2.5347478877       -1.8687181006       -2.1042107114
 C         -1.8588972184       -1.4053263306       -0.9855267010
 H         -0.9153409886       -0.8917768200       -1.0809458405
 H         -2.0952994375       -1.7148076900       -3.0768031112
 H         -4.2706749769       -2.8746132613       -2.8389186123
 H         -5.2528853175       -3.2094275526       -0.5974700228
 H         -4.0255979186       -2.3734027226        1.4138085179
 H         -0.8139338185       -3.1375085411        2.1980801587
 H         -0.0218007371       -4.4167203100        0.3485749285
 H          1.5524530136       -4.5453739285       -1.5487044810
 H          2.9344457927       -2.5978258975       -2.1474578398
 H          3.2398767813       -0.2187151274       -1.9662302889
 C          4.4189032407       -0.1698865974       -0.1967266185
 C          4.6595709606       -0.8331203577        1.1228110513
 C          5.2502111914       -1.4163939170       -0.1242348987
 H          6.3147649614       -1.3284827163       -0.2788543783
 H          4.8215823420       -2.3347490871       -0.4947530591
 H          5.3035827001       -0.3288523076        1.8266318517
 H          3.8325919708       -1.3497089583        1.5867296309
 H          4.9511700902        0.7587205830       -0.3666270280
