  62
        -98.94041606
 C         -1.5245376505       -1.2158523900       -0.0127336603
 C         -2.6226638706       -0.9576402905        0.8420027398
 C         -3.4004560305        0.2696357197        0.5856682304
 C         -3.0054151703        1.0882206803       -0.4069431491
 C         -3.6466237002        2.3710970806       -0.8641561184
 C         -4.9170194101        2.1328178712       -1.6973776586
 C         -5.8534627802        1.0576862609       -1.1518583994
 H         -6.6453183102        0.9018878514       -1.8893859196
 H         -5.3068097103        0.1171239808       -1.0618610599
 C         -6.5178177804        1.3885736702        0.1823919307
 H         -7.1058173103        2.3026426703        0.0724922812
 H         -7.2108495304        0.5746222001        0.4106391002
 C         -5.5749514605        1.5592620994        1.3750121809
 H         -5.0764518604        2.5242350894        1.3440271616
 H         -6.1913529106        1.5578993089        2.2788206509
 C         -4.5522573106        0.4401891292        1.5464727604
 H         -4.0964335407        0.5347752686        2.5394970805
 H         -5.0755092406       -0.5227603107        1.5619976198
 H         -4.6099942500        1.8264694918       -2.7004156988
 H         -5.4557044700        3.0778563913       -1.7843124381
 H         -3.8565795402        3.0076701201       -0.0098809780
 H         -2.9149741301        2.8853022809       -1.4911943780
 O         -1.9281757303        0.8087188207       -1.1938013091
 C         -1.1699664803       -0.3374186594       -1.0353950697
 O         -0.2361085803       -0.4442737690       -1.8532588297
 H          1.6334450996       -2.0937969495       -1.1693551604
 C          1.7303545095       -1.8102022702       -0.1337827402
 C          0.6618233093       -1.9768446806        0.7326775095
 C          0.8113897692       -1.5810883814        2.0593733598
 C          1.9997362692       -1.0328582718        2.5042827902
 C          3.0561101493       -0.8423273813        1.6297548705
 C          2.9101257294       -1.2231999305        0.3029085102
 N          3.9544064796       -0.9766086400       -0.6071438095
 S          4.6362044697        0.5517622799       -0.5597841685
 O          5.0723821798        0.8214095407       -1.9126267283
 O          5.6754958595        0.5770066392        0.4412347216
 C          3.3349338797        1.6805789397       -0.0835535480
 C          2.1295409398        1.6473919402       -0.7558107981
 C          1.1298321998        2.5298708400       -0.3792238477
 C          1.3495733097        3.4307988194        0.6506733228
 C          2.5685410296        3.4568215389        1.3105714030
 C          3.5701787196        2.5730572991        0.9434106226
 H          4.5286161296        2.5515680087        1.4364164227
 H          2.7387998396        4.1585544084        2.1111384234
 H          0.5654622197        4.1131060393        0.9392170731
 H          0.1807818698        2.4917857904       -0.8909919579
 H          1.9542541898        0.9353458307       -1.5468299386
 H          3.7227951597       -1.2303867195       -1.5570471197
 H          3.9843507193       -0.3980948816        1.9514849108
 H          2.1028535491       -0.7378262524        3.5372794904
 H         -0.0255521709       -1.6949750518        2.7339770896
 C         -0.6843288006       -2.4552310802        0.2506813691
 H         -1.1841795008       -2.9791316307        1.0758791687
 C         -0.6234861106       -3.3755439795       -0.9494673514
 C         -0.1110863507       -4.7732704597       -0.7758871522
 C         -1.5679800206       -4.5354366794       -1.0327314422
 H         -1.9725186005       -4.8014023188       -1.9979110824
 H         -2.2609246607       -4.6757460099       -0.2161792524
 H          0.4866879994       -5.2065127892       -1.5632666024
 H          0.1866239792       -5.0733982703        0.2173767576
 H         -0.3934743804       -2.8628077590       -1.8756066711
 O         -2.9514324208       -1.7258744110        1.7852133793
