  62
        -98.94291116
 C          2.5773662692        0.0495807315       -0.2542804399
 C          2.6239276392       -0.8946700386        0.8036442601
 C          2.2287788597       -2.2695363987        0.4803247299
 C          1.8439173802       -2.5596510387       -0.7750945502
 C          1.3849296107       -3.9098625588       -1.2439399105
 C         -0.1375931092       -4.0607455693       -1.1315760409
 C         -0.7056975997       -3.6747560796        0.2346366890
 H         -0.6099324701       -2.5946090296        0.3719641291
 H         -1.7760971697       -3.8934501000        0.2088508787
 C         -0.0661415998       -4.4043945095        1.4243833791
 H         -0.8601198699       -4.7172979898        2.1056556789
 H          0.4397672406       -5.3068338593        1.0784867192
 C          0.9092647497       -3.5544992992        2.2411195194
 H          0.4448425193       -2.5922043194        2.4726345294
 H          1.0986245496       -4.0675777592        3.1880319595
 C          2.2701517898       -3.2847001487        1.5871810598
 H          2.7032880002       -4.2231902586        1.2342964499
 H          2.9307800594       -2.8651776886        2.3516593500
 H         -0.6057109993       -3.4207381194       -1.8840420409
 H         -0.3957154888       -5.0980423094       -1.3560211810
 H          1.6741774310       -4.0237536787       -2.2904589804
 H          1.8811076208       -4.6784505487       -0.6538684204
 O          1.8140429501       -1.6353182486       -1.7666240002
 C          2.1441622696       -0.3055746686       -1.5323876100
 O          2.0234880596        0.4155566415       -2.5427217800
 O          2.9989362988       -0.5957705685        1.9708788302
 C          2.9211330486        1.4801711316        0.1199775203
 C          1.6948615282        2.1900724911        0.6493616000
 C          1.7821556877        3.0661940311        1.7255628201
 C          0.6482086573        3.6776533207        2.2292997499
 C         -0.5971085124        3.4026334303        1.6931230595
 C         -0.6930487719        2.5330407204        0.6132287394
 C          0.4519742585        1.9596242608        0.0813068497
 H          0.3552118589        1.2984859208       -0.7669238804
 N         -1.9342217416        2.2045535100        0.0434600591
 S         -2.1363956010        0.5900362000       -0.4300406311
 O         -1.4626198409       -0.2836575699        0.5022733391
 O         -1.7741094406        0.4631208002       -1.8194125910
 C         -3.9055016109        0.4253537094       -0.2685527715
 C         -4.7101285709        1.0236270192       -1.2205628917
 C         -6.0863470309        0.9324186287       -1.0874219821
 C         -6.6322925210        0.2477843585       -0.0113741923
 C         -5.8122950510       -0.3497420013        0.9336977579
 C         -4.4343964710       -0.2597941509        0.8081863383
 H         -3.7561264210       -0.7105261407        1.5148666784
 H         -6.2388827411       -0.8843487315        1.7669707178
 H         -7.7037392310        0.1776217781        0.0895757675
 H         -6.7265679709        1.3938276285       -1.8217729022
 H         -4.2393888808        1.5350154894       -2.0440994215
 H         -2.7185547019        2.5337145897        0.5904769789
 H         -1.4871914627        3.8512879200        2.1072636093
 H          0.7303633169        4.3543930107        3.0660944199
 H          2.7435954575        3.2495635714        2.1809890604
 H          3.6376643884        1.4027440618        0.9507547505
 C          3.5591881086        2.2942249819       -0.9873715095
 C          4.4950382282        3.4106884522       -0.6366280291
 C          5.0265288587        2.1531611724       -1.2545199291
 H          5.3640758990        2.1764625526       -2.2794093990
 H          5.5829163588        1.4716827425       -0.6275207190
 H          4.4693624580        4.3072690322       -1.2363133491
 H          4.7035518178        3.5846280922        0.4077872509
 H          2.9109689988        2.4293704117       -1.8435481096
