  62
        -98.93940989
 C         -2.2549796223       -0.8145522910       -0.0468406089
 C         -3.2758626595       -0.6991188833        0.9275686186
 C         -4.1915233919        0.4472186790        0.8004686406
 C         -4.0085556355        1.3281985674       -0.2007190854
 C         -4.7453492721        2.6037298363       -0.5530794505
 C         -6.1028665211        2.9197823320        0.0696416170
 C         -7.2366347493        1.9897028312       -0.3609506967
 H         -8.1268245194        2.2467757258        0.2171921474
 H         -7.4584749766        2.1776320140       -1.4145152335
 C         -6.9589172231        0.4963401751       -0.2082224766
 H         -6.1315429174        0.2086417206       -0.8601496859
 H         -7.8437701507       -0.0449349829       -0.5539410472
 C         -6.6554532480        0.0297944268        1.2141209964
 H         -6.6378663839       -1.0632593783        1.2045765920
 H         -7.4577974703        0.3453989848        1.8836687501
 C         -5.3140012857        0.5083313711        1.7962558688
 H         -5.3986735783        1.5068644638        2.2182225474
 H         -5.0381868004       -0.1688862382        2.6097209471
 H         -6.3647944285        3.9306948697       -0.2545028930
 H         -6.0229520826        2.9481552318        1.1522730467
 H         -4.8444404171        2.5978381157       -1.6433179899
 H         -4.0548635534        3.4199561776       -0.3125901295
 O         -2.9905531534        1.1914913317       -1.1002346720
 C         -2.0996879744        0.1311571018       -1.0581152531
 O         -1.2471107453        0.1528129525       -1.9674792342
 O         -3.4170454775       -1.5212060772        1.8715556876
 C         -1.2950037426       -1.9883745812        0.0570858211
 C          0.0622531686       -1.4582490152        0.4468027231
 C          0.3257881918       -1.1831203851        1.7860566859
 C          1.5374320604       -0.6403268137        2.1691905249
 C          2.5089070253       -0.3517960905        1.2258557577
 C          2.2474524889       -0.6029479569       -0.1137231051
 C          1.0373852167       -1.1692136862       -0.4943688124
 H          0.8432430641       -1.3471797815       -1.5401063111
 N          3.2203276244       -0.3065330936       -1.0826271117
 S          4.0391331691        1.1541057547       -0.9869542702
 O          3.2442596952        2.1820809309       -0.3552687310
 O          4.4878713556        1.4243189893       -2.3357011629
 C          5.4562464542        0.7676113550        0.0224090659
 C          5.7607259959        1.5541688486        1.1160054752
 C          6.8734976396        1.2385479107        1.8803802789
 C          7.6587204006        0.1483012785        1.5388118304
 C          7.3414314270       -0.6298795867        0.4354187770
 C          6.2313326811       -0.3189765922       -0.3332881077
 H          5.9521055922       -0.8964171329       -1.1985684363
 H          7.9541226846       -1.4771857121        0.1728546857
 H          8.5228991025       -0.0962525145        2.1360221702
 H          7.1215999886        1.8430369347        2.7380084920
 H          5.1177003925        2.3885753346        1.3475776638
 H          2.9107986965       -0.4818002684       -2.0279342115
 H          3.4514604481        0.0824763447        1.5161634997
 H          1.7294149523       -0.4367468927        3.2117258068
 H         -0.4401482463       -1.3890104632        2.5206804226
 H         -1.6737224723       -2.5979520144        0.8883989944
 C         -1.2861292345       -2.8317879023       -1.2004588131
 C         -0.6708299747       -4.1977542117       -1.1604171595
 C         -2.1575458047       -4.0483407937       -1.2720067802
 H         -2.6320755654       -4.2861494467       -2.2123326104
 H         -2.7619292438       -4.2812351564       -0.4076845110
 H         -0.1222538912       -4.5424361930       -2.0235618195
 H         -0.2640675989       -4.5306883765       -0.2176750916
 H         -1.1763936716       -2.2508610044       -2.1082433954
