  62
        -98.94073188
 C         -2.3939605297       -1.2403559887        0.1249386799
 C         -2.3107974496        0.1725175514        0.0406081110
 C         -3.4520890995        0.9158785811        0.6024865116
 C         -4.4628202296        0.2468353707        1.1840252010
 C         -5.7059983495        0.8758266804        1.7415437415
 C         -6.8129240995        0.9547017214        0.6808320116
 C         -6.3515177894        1.5476696624       -0.6504517079
 H         -5.6277721295        0.8712385827       -1.1108736585
 H         -7.2214395594        1.5836732030       -1.3097022879
 C         -5.7344810693        2.9490466522       -0.5412631968
 H         -6.1431340692        3.5749855629       -1.3373577463
 H         -6.0176140792        3.4061820615        0.4075141335
 C         -4.2116448993        2.9847925622       -0.6850454468
 H         -3.9056835592        4.0269173422       -0.8108743560
 H         -3.9165805893        2.4476099228       -1.5902656072
 C         -3.4154878193        2.4146595311        0.4960274227
 H         -2.3638341793        2.6794153611        0.3485765430
 H         -3.7561328793        2.8753740405        1.4256369431
 H         -7.6333926894        1.5521747012        1.0822612021
 H         -7.1868415396       -0.0547584284        0.4947221208
 H         -5.4688430094        1.8720334301        2.1099097223
 H         -6.0560076996        0.2639007698        2.5746162811
 O         -4.4843240897       -1.1057895594        1.2908304200
 C         -3.4602734598       -1.8769280891        0.7688178794
 O         -3.6084234400       -3.1027028392        0.9435102084
 O         -1.3514250995        0.7999667917       -0.4790409585
 C         -1.3053348698       -2.1565425384       -0.4116544308
 C          0.0449447202       -1.6889968689        0.0697512995
 C          0.4206603002       -1.9429570400        1.3854507693
 C          1.6387309102       -1.5029596605        1.8674943497
 C          2.5043015203       -0.7958053199        1.0508994902
 C          2.1280844203       -0.5174023789       -0.2558101196
 C          0.9115500103       -0.9786292284       -0.7438697599
 H          0.6213371103       -0.7437337175       -1.7560058397
 N          2.9919353204        0.1975262217       -1.0982018890
 S          3.9233322705        1.4517647911       -0.4971720680
 O          3.2857231706        2.1377840203        0.6022856625
 O          4.2500280906        2.2571806120       -1.6540368974
 C          5.4016300305        0.6316550805        0.0675391113
 C          5.8913801005        0.8862364495        1.3334134715
 C          7.0491753404        0.2454854290        1.7468897110
 C          7.6946600403       -0.6333306204        0.8909017504
 C          7.1922862203       -0.8757904693       -0.3789109098
 C          6.0361246404       -0.2376154089       -0.7982268093
 H          5.6156996003       -0.3977033681       -1.7768831095
 H          7.6970117902       -1.5597849689       -1.0420705304
 H          8.5942842803       -1.1320744407        1.2153784200
 H          7.4412597804        0.4337643582        2.7335129012
 H          5.3536293806        1.5732666690        1.9677153721
 H          2.5862997404        0.4363445824       -1.9911330388
 H          3.4491850703       -0.4382504603        1.4256825405
 H          1.9187143702       -1.7092970313        2.8894854695
 H         -0.2612467499       -2.4829419504        2.0284122389
 H         -1.5076673000       -3.1341564587        0.0541459784
 C         -1.3543287599       -2.3783813672       -1.9165504110
 C         -2.6704824799       -2.5459092665       -2.6140628311
 C         -1.8267033498       -1.3384839164       -2.8855180502
 H         -1.3276403297       -1.2683751157       -3.8414578101
 H         -2.1447169797       -0.3860768366       -2.4919836495
 H         -2.7562049900       -3.2999086559       -3.3817915617
 H         -3.5647430299       -2.4228809869       -2.0201411711
 H         -0.5459897899       -3.0213235170       -2.2517619215
