  62
        -98.93662195
 C         -1.9161885013       -1.4946460882        0.1743630278
 C         -1.6771941418       -0.1021551503        0.1947031855
 C         -2.8510911633        0.7747799301        0.3951043560
 C         -4.0598281238        0.2136770067        0.5789853919
 C         -5.3897778115        0.8968224911        0.7547575011
 C         -5.9488038755        1.4534854773       -0.5648199121
 C         -4.9300915272        2.1781493907       -1.4408664427
 H         -4.1076216155        1.4986432674       -1.6722146315
 H         -5.4210646790        2.4235585657       -2.3863862183
 C         -4.3710728064        3.4726407849       -0.8551080447
 H         -3.7297883125        3.9222758211       -1.6176025418
 H         -5.1950151628        4.1641849688       -0.6652349063
 C         -3.5522810613        3.3275528363        0.4293177060
 H         -4.1979044895        3.1851402402        1.2916899045
 H         -3.0275056254        4.2742047281        0.5878145176
 C         -2.4840093707        2.2395332840        0.3845451518
 H         -1.8106770228        2.3767801087        1.2394842253
 H         -1.8593599652        2.3881032465       -0.5039565834
 H         -6.7762560100        2.1259590278       -0.3323690085
 H         -6.3475985005        0.6158921994       -1.1425990956
 H         -6.0819892211        0.1418748106        1.1342360354
 H         -5.3116490224        1.6795298561        1.5034904622
 O         -4.2370012387       -1.1392310676        0.5923699876
 C         -3.1905015686       -2.0189199073        0.4015148757
 O         -3.5105125580       -3.2228550110        0.4657082455
 O         -0.5391879620        0.4133869488        0.0493118852
 C         -0.7936303410       -2.4946762098       -0.0388449108
 C          0.4168380386       -2.1092347701        0.7766507244
 C          0.2919297159       -2.0516211038        2.1630660076
 C          1.3698796937       -1.7131625498        2.9567475468
 C          2.5978863167       -1.4283715831        2.3851486868
 C          2.7362020209       -1.4880601676        1.0038747908
 C          1.6500617427       -1.8318046948        0.2083862397
 H          1.7805534616       -1.8461818644       -0.8602847204
 N          3.9864900516       -1.2497709826        0.4069511004
 S          4.1907124770       -0.2042282511       -0.8817174399
 O          3.3472985392       -0.5988972454       -1.9795109408
 O          5.6158617540       -0.2246988881       -1.1342813137
 C          3.7332460549        1.4073305447       -0.2666236353
 C          4.7385595745        2.3123632337        0.0172642039
 C          4.4016005502        3.5539432289        0.5303910221
 C          3.0696098442        3.8662401233        0.7583324613
 C          2.0751567298        2.9440516638        0.4732521815
 C          2.4026883532        1.7000589227       -0.0449267285
 H          1.6348882894        0.9758019786       -0.2647893864
 H          1.0362291330        3.1730964554        0.6497924530
 H          2.8049564227        4.8319830420        1.1597660257
 H          5.1753882224        4.2714300181        0.7518396775
 H          5.7595654530        2.0263777803       -0.1779078560
 H          4.7345356688       -1.1070844079        1.0707142098
 H          3.4429198216       -1.1652091139        3.0033620764
 H          1.2550471351       -1.6681527898        4.0293770249
 H         -0.6694731954       -2.2713533113        2.6084294413
 H         -1.1794123206       -3.4455117078        0.3662243073
 C         -0.4659608755       -2.7481095392       -1.5029269955
 C         -1.5123593618       -2.6251598627       -2.5689740004
 C         -0.3856025372       -1.6402529065       -2.5076290869
 H          0.3897196876       -1.6841110667       -3.2589595773
 H         -0.5941918388       -0.6394733157       -2.1643925729
 H         -1.5196389792       -3.3541038149       -3.3653834816
 H         -2.4974682877       -2.2968297348       -2.2698710566
 H          0.2427269775       -3.5624027522       -1.6232147509
