  62
        -98.94370637
 C         -1.4759204604       -1.1606677422        0.0311952821
 C         -2.4832370715       -0.7489420432        0.9305672430
 C         -3.0258298161        0.6048418822        0.7306262807
 C         -2.5227396631        1.3715676782       -0.2526826778
 C         -2.9590258149        2.7565111521       -0.6433914427
 C         -4.0074389655        2.7024024777       -1.7676851752
 C         -5.4531290433        2.5601638747       -1.2929509049
 H         -5.7736351615        3.4984203153       -0.8354366826
 H         -6.0714955136        2.3990840532       -2.1788820360
 C         -5.7080473843        1.4214312847       -0.3019163969
 H         -5.1684908653        0.5278949083       -0.6207948154
 H         -6.7732794005        1.1845190086       -0.3311181572
 C         -5.3195006611        1.7779998088        1.1407609114
 H         -6.1553270004        1.5529354657        1.8064629977
 H         -5.1508706817        2.8526607427        1.2090460643
 C         -4.0979169467        1.0300869312        1.6968935080
 H         -3.6344983621        1.6354552221        2.4839365488
 H         -4.4256647882        0.1002181032        2.1728110574
 H         -3.9338325125        3.6172179155       -2.3591235140
 H         -3.7506200637        1.8667064140       -2.4235187991
 H         -3.3327695892        3.2987208088        0.2202490572
 H         -2.0678863683        3.2664427954       -1.0160657208
 O         -1.5441190584        0.9400004374       -1.0926010827
 C         -0.9874386647       -0.3176162043       -0.9654283466
 O         -0.0868259602       -0.5703379473       -1.7898293308
 O         -2.9135504879       -1.4830971566        1.8635852108
 C         -0.8480122037       -2.5325319722        0.1908783128
 C          0.6461986315       -2.4036300005        0.3589597700
 C          1.5564607441       -3.2800080004       -0.2193437874
 C          2.9175804083       -3.0965624708       -0.0452565731
 C          3.4001671861       -2.0268513135        0.6862268387
 C          2.4970912481       -1.1512345449        1.2770953935
 C          1.1359252628       -1.3614315771        1.1358683543
 H          0.4502438680       -0.6706374473        1.6049755318
 N          2.9299628331       -0.0263351633        2.0128037433
 S          2.5554349392        1.4734287625        1.3597240669
 O          3.1696436777        2.4343066674        2.2517901650
 O          1.1319221172        1.5913647122        1.1782168663
 C          3.4146511825        1.4908543044       -0.2039265565
 C          2.8590921073        0.8523604697       -1.2943929802
 C          3.5824089517        0.8090693402       -2.4773354909
 C          4.8360564360        1.3957310740       -2.5494464032
 C          5.3788710927        2.0330676352       -1.4434847554
 C          4.6654948371        2.0769747668       -0.2571794947
 H          5.0436787878        2.5633926465        0.6276274460
 H          6.3529258929        2.4915154494       -1.5013149397
 H          5.3912400012        1.3567467318       -3.4733753923
 H          3.1520140674        0.3118823348       -3.3318430248
 H          1.8786915995        0.4063012521       -1.2232592169
 H          3.9161529314       -0.0459052502        2.2369398391
 H          4.4618359028       -1.8664866819        0.7992121450
 H          3.6116600043       -3.7851659031       -0.5021456206
 H          1.1990958097       -4.1051919821       -0.8134346008
 H         -1.2689339924       -2.9433457757        1.1211854491
 C         -1.2444730541       -3.4318784519       -0.9627290979
 C         -1.4050921634       -4.9078860915       -0.7564052954
 C         -2.6119435443       -4.0445027124       -0.9630106746
 H         -3.1461482368       -4.1146001286       -1.8986419457
 H         -3.2458309212       -3.8352690791       -0.1135768540
 H         -1.1131168776       -5.5747705140       -1.5536134898
 H         -1.2268233226       -5.2970163324        0.2346188582
 H         -0.8512145920       -3.0845662662       -1.9118220508
