  62
        -98.94333754
 C          2.3548721067        0.5236698970        0.1149610093
 C          3.3944473898        0.3270879779        1.0573094166
 C          4.3482347703       -0.7425221501        0.7457332580
 C          4.1748345093       -1.4889508117       -0.3602772370
 C          5.0430055573       -2.6374070729       -0.7978040324
 C          6.2943297509       -2.2130041631       -1.5787953560
 C          7.3921493110       -1.5554447113       -0.7416299041
 H          7.6247733257       -2.1905333947        0.1136915451
 H          8.2867439183       -1.5095023773       -1.3658899448
 C          7.0556920273       -0.1382837619       -0.2569111872
 H          6.2235777311        0.2592825612       -0.8425648633
 H          7.9109968063        0.5187087722       -0.4302503558
 C          6.7049907065       -0.0427681772        1.2279607430
 H          7.5765871918       -0.3123743805        1.8285102638
 H          6.4491287116        0.9956859977        1.4533068166
 C          5.5251174136       -0.9253358175        1.6559524962
 H          5.8280962262       -1.9717989057        1.6814251896
 H          5.2182114682       -0.6244950226        2.6606225310
 H          6.7092964798       -3.1114248007       -2.0414569576
 H          5.9924297275       -1.5355324746       -2.3808787750
 H          4.4266720542       -3.2616388651       -1.4482987057
 H          5.3375449004       -3.2260139721        0.0714791846
 O          3.1440952550       -1.2898875959       -1.2235842323
 C          2.2207807195       -0.2733298595       -1.0218824401
 O          1.3526697767       -0.1923413430       -1.9115712740
 O          3.5160405591        1.0103803020        2.1087856693
 C          1.3427936682        1.6263252427        0.3764827019
 C         -0.0077455689        1.0008537062        0.6214227518
 C         -0.2240140285        0.3261310521        1.8206206060
 C         -1.4348515839       -0.2867011299        2.0782914794
 C         -2.4554082135       -0.2469984886        1.1435042291
 C         -2.2504301680        0.4219719756       -0.0547066742
 C         -1.0354965118        1.0482269435       -0.3061807663
 H         -0.8892975555        1.5568012367       -1.2460905333
 N         -3.2740206094        0.4486443343       -1.0156108667
 S         -4.8246762163        0.8701354307       -0.5407684066
 O         -5.4643566079        1.3717627664       -1.7375606197
 O         -4.8069425330        1.7596502591        0.5974742221
 C         -5.5752733439       -0.6806914917       -0.0912046573
 C         -6.1604607250       -0.8286619153        1.1509652454
 C         -6.7512524191       -2.0405809217        1.4735534084
 C         -6.7472856914       -3.0769402155        0.5526879276
 C         -6.1569618703       -2.9115119318       -0.6915456731
 C         -5.5655152276       -1.7023820081       -1.0204313015
 H         -5.0984355857       -1.5335852758       -1.9764993227
 H         -6.1550312174       -3.7197759355       -1.4050909409
 H         -7.2067409731       -4.0194038203        0.8057873698
 H         -7.2104376391       -2.1714630951        2.4402423473
 H         -6.1349620150        0.0032030514        1.8367900890
 H         -3.0149499685        0.9050878379       -1.8777684106
 H         -3.4014978198       -0.7265513355        1.3347700551
 H         -1.5873558085       -0.8034574542        3.0136559147
 H          0.5767054660        0.2872901733        2.5463713240
 H          1.6692982611        2.1022965226        1.3117600624
 C          1.3544214870        2.6639047193       -0.7257810327
 C          0.7384622768        4.0080981907       -0.4809675620
 C          2.2275013879        3.8726529542       -0.5817606747
 H          2.7225544883        4.2584861487       -1.4603670509
 H          2.8117348755        3.9610258624        0.3223872575
 H          0.2098719142        4.4901654462       -1.2895152759
 H          0.3083793954        4.1887038942        0.4927169469
 H          1.2639244661        2.2347655413       -1.7168731469
