  62
        -98.93908718
 C          2.5156887240        1.2200589566        0.3305685173
 C          2.5031703672        0.3926406745       -0.8153478595
 C          3.2108528608       -0.9003932362       -0.7107809829
 C          3.8208244127       -1.2147979544        0.4470837212
 C          4.5663676153       -2.4750730461        0.7982699112
 C          3.6279068742       -3.6569816621        1.0894486950
 C          2.4730508850       -3.8186602400        0.1040002713
 H          1.8267933663       -4.6186141803        0.4760199566
 H          1.8733103077       -2.9055796505        0.0933566416
 C          2.8808789202       -4.1740868013       -1.3239920155
 H          3.4452748360       -5.1092248139       -1.3125149021
 H          1.9597673697       -4.3476275071       -1.8866554519
 C          3.7003823080       -3.1185501403       -2.0699019663
 H          3.6965047912       -3.3942249805       -3.1284070565
 H          4.7393710150       -3.1295422351       -1.7515778118
 C          3.1382492373       -1.7028567354       -1.9872618128
 H          3.6286172207       -1.0866816717       -2.7505298474
 H          2.0785604512       -1.7204241535       -2.2694841080
 H          4.2213752809       -4.5725514825        1.1094424284
 H          3.1979405301       -3.5116249325        2.0836659834
 H          5.2697918051       -2.7247278059        0.0098338770
 H          5.1407725200       -2.2575181601        1.7014537053
 O          3.7980841737       -0.3854480486        1.5309841975
 C          3.1416741278        0.8295635828        1.5120919775
 O          3.1808930156        1.4577320439        2.5906773295
 H          0.2218235197        0.7928859189        1.5371365198
 C         -0.3328066004        1.3280035763        0.7744192905
 C          0.3184772013        2.3034645273        0.0286041934
 C         -0.4032267349        2.9831471880       -0.9427574372
 C         -1.7338048006        2.6744913484       -1.1700899382
 C         -2.3727510400        1.6931911271       -0.4350876622
 C         -1.6624356651        1.0140579138        0.5465490249
 N         -2.3067901307        0.0158107790        1.3054342424
 S         -2.9610904047       -1.2743174483        0.4447765510
 O         -3.0004305810       -2.3741951640        1.3846369110
 O         -2.2459206063       -1.5080578799       -0.7887378238
 C         -4.6255579235       -0.7445255525        0.1018691708
 C         -5.0772950831       -0.6899431234       -1.2019734044
 C         -6.3790948381       -0.2780977936       -1.4426171994
 C         -7.2005090575        0.0694168259       -0.3810609047
 C         -6.7314647309        0.0076068935        0.9229375847
 C         -5.4319360012       -0.4045710513        1.1706158105
 H         -5.0285153992       -0.4704793259        2.1672414602
 H         -7.3730909332        0.2791513782        1.7455908404
 H         -8.2123271382        0.3908450653       -0.5712030999
 H         -6.7452232745       -0.2290750065       -2.4555277055
 H         -4.3991160413       -0.9628174463       -1.9948090126
 H         -1.7344124045       -0.3377151308        2.0595370953
 H         -3.4062063802        1.4455042791       -0.6148488774
 H         -2.2802859246        3.2047809154       -1.9349421990
 H          0.0792260188        3.7449288765       -1.5324613308
 C          1.7803784327        2.5487144138        0.3161877353
 H          1.8653463147        2.9532807424        1.3355480081
 C          2.4396727209        3.5112709554       -0.6482511214
 C          2.3323908864        4.9893287022       -0.4266938227
 C          3.6352535252        4.2884404023       -0.1889889399
 H          4.4442971013        4.4488597707       -0.8855870379
 H          3.9610881563        4.1394981951        0.8304371984
 H          2.2500224247        5.6352743169       -1.2876417300
 H          1.7747882861        5.3263003147        0.4339659965
 H          2.4437028831        3.1413838665       -1.6669507492
 O          1.9235574894        0.7088635839       -1.8870972099
