  62
        -98.93915248
 C          1.8568216300        0.8765385644       -0.1966512733
 C          2.4593937899        0.2761426870        0.9314098127
 C          3.5408235964       -0.6898016066        0.6692825237
 C          3.8834078480       -0.9662407867       -0.6031149064
 C          4.9022005253       -1.9308911458       -1.1739629304
 C          5.9683429633       -2.5620162456       -0.2822832916
 C          7.0116506708       -1.5837488047        0.2568304138
 H          7.6357499365       -1.2491466765       -0.5756241111
 H          7.6535982255       -2.1211186805        0.9582963822
 C          6.4555672097       -0.3392577698        0.9442347323
 H          5.8884204179        0.2547258875        0.2246408103
 H          7.3033908228        0.2707309516        1.2675576652
 C          5.5812823015       -0.6042868165        2.1681388364
 H          5.3860683204        0.3586873073        2.6476489338
 H          6.1249294726       -1.2278734686        2.8805035071
 C          4.2206208101       -1.2618072875        1.8801724533
 H          3.5604263332       -1.0555417452        2.7278983730
 H          4.3133111989       -2.3420989142        1.7956136459
 H          6.4931754991       -3.2969701389       -0.8987551400
 H          5.5027867281       -3.1108780590        0.5311106187
 H          5.3923917922       -1.3948850889       -1.9929309008
 H          4.3199955829       -2.7343795863       -1.6390914565
 O          3.2496543582       -0.3823470363       -1.6626728282
 C          2.2341493558        0.5457479505       -1.4968200103
 O          1.7629313729        0.9869953859       -2.5610160338
 O          2.0987995634        0.5234612591        2.1146184037
 C          0.7408031014        1.8838228943        0.0098069694
 C         -0.5366981806        1.3789058275       -0.6153539605
 C         -1.3638458118        2.1627164955       -1.4083777414
 C         -2.5197103501        1.6317726697       -1.9560811145
 C         -2.8807242368        0.3188744382       -1.7193724025
 C         -2.0711063682       -0.4680262202       -0.9089469556
 C         -0.9171485683        0.0668449317       -0.3584054763
 H         -0.2870619914       -0.5500929214        0.2705498008
 N         -2.4344239647       -1.7992347334       -0.6469082761
 S         -4.0346485097       -2.1269777553       -0.2865576691
 O         -4.0010761271       -3.3229548716        0.5259003854
 O         -4.7989639380       -2.2175436371       -1.5057133054
 C         -4.5960673263       -0.7322706311        0.6742631619
 C         -3.9403289317       -0.4500638423        1.8563626562
 C         -4.3427295157        0.6467401812        2.6006235608
 C         -5.3890349315        1.4387983493        2.1525176522
 C         -6.0405877720        1.1392029143        0.9664441000
 C         -5.6407958690        0.0444335228        0.2167466446
 H         -6.1172511753       -0.2230142775       -0.7122830592
 H         -6.8548953804        1.7555698043        0.6214180905
 H         -5.6973922414        2.2937065671        2.7333127022
 H         -3.8359566515        0.8806534247        3.5232111855
 H         -3.1328315737       -1.0870782345        2.1808033864
 H         -1.8071138400       -2.2833193874       -0.0223808608
 H         -3.7654452659       -0.1141680687       -2.1569752193
 H         -3.1459152905        2.2490141447       -2.5817341939
 H         -1.0987915295        3.1874807558       -1.6087607942
 H          0.5903469850        1.9318449265        1.0987719882
 C          1.1614098112        3.2519493658       -0.4837602099
 C          0.5990591289        4.4893079916        0.1478988686
 C          2.0250996465        4.1029902511        0.3968050216
 H          2.8086838481        4.6886249764       -0.0601386949
 H          2.2878028765        3.7058672353        1.3665789942
 H          0.4045056211        5.3457913228       -0.4797481613
 H         -0.1073205663        4.3621604320        0.9540030197
 H          1.3669156865        3.2647691738       -1.5482562628
