  62
        -98.94453043
 C         -1.2718551866       -1.7691359577       -0.6813921489
 C         -2.4639979773       -1.6502187343        0.0796173392
 C         -3.3989222946       -0.5985534764       -0.3282139728
 C         -3.1188094134        0.1572002026       -1.4048263586
 C         -3.9496957162        1.2951936282       -1.9304152169
 C         -3.6605126752        2.6257214240       -1.2211205393
 C         -4.2223677365        2.7373689625        0.1969582172
 H         -4.1561988624        3.7886355391        0.4846222447
 H         -5.2785827421        2.4642996458        0.1934157314
 C         -3.4723607250        1.8964272071        1.2399266017
 H         -2.4886309075        1.6243719686        0.8471510222
 H         -3.2944598935        2.5011514555        2.1328101495
 C         -4.2094965870        0.6337703503        1.6898654723
 H         -5.1228808114        0.9148745748        2.2195092308
 H         -3.5647295407        0.0952135286        2.3894641732
 C         -4.5800372783       -0.3281270434        0.5531973663
 H         -4.8909012387       -1.2776188648        0.9961370844
 H         -5.4076965388        0.0760995715       -0.0290173582
 H         -4.0952852585        3.4239704305       -1.8277030128
 H         -2.5780197291        2.7784410384       -1.1913840226
 H         -5.0096252414        1.0543546773       -1.8447847049
 H         -3.6995039806        1.4054520429       -2.9877932010
 O         -2.0109906972       -0.0412894715       -2.1603528245
 C         -1.0235423473       -0.9473105575       -1.7813759666
 O         -0.0225984679       -0.9171033083       -2.5209562795
 O         -2.7232798506       -2.3883868022        1.0684855604
 C         -0.2314335761       -2.7250346550       -0.1232583433
 C          0.4703709169       -2.0598976093        1.0385308871
 C          0.8338061271       -2.7675975157        2.1780137507
 C          1.4490867871       -2.1202880419        3.2357630824
 C          1.6972176092       -0.7602966036        3.1877110099
 C          1.3208418817       -0.0391278622        2.0585171302
 C          0.7349506935       -0.6996199790        0.9899548445
 H          0.4366703958       -0.1327761984        0.1241274819
 N          1.4900502038        1.3457927057        2.0038858076
 S          1.4703974736        2.2482201990        0.6033245981
 O          1.8130343323        3.5796028632        1.0573058655
 O          0.2047769832        2.1189303333       -0.0732097557
 C          2.8197839535        1.6134283769       -0.3741764891
 C          4.0953838788        1.9049265525        0.0743235248
 C          5.1853352076        1.4248802792       -0.6306823595
 C          4.9840786091        0.6629261393       -1.7725638640
 C          3.7003545625        0.3838084926       -2.2112393087
 C          2.6026142252        0.8588120261       -1.5077031335
 H          1.5987514941        0.6352947700       -1.8350394041
 H          3.5331196400       -0.2068765049       -3.0975371580
 H          5.8308846220        0.2864824382       -2.3243594481
 H          6.1846396941        1.6448495684       -0.2912160184
 H          4.2075277008        2.5173691726        0.9541490288
 H          2.0201084445        1.7674863214        2.7494806950
 H          2.1556581646       -0.2541570054        4.0230651972
 H          1.7274367999       -2.6792958996        4.1162008485
 H          0.6080227586       -3.8215257285        2.2449855716
 H         -0.8017528292       -3.5749591430        0.2861392742
 C          0.7362164331       -3.2754571330       -1.1580051269
 C          2.1445384055       -2.7877027876       -1.2915051199
 C          1.8783429983       -4.1561328416       -0.7447824930
 H          2.1121147520       -5.0123243655       -1.3590619264
 H          2.0390582620       -4.3109084716        0.3106683744
 H          2.5468800413       -2.6908214877       -2.2874448621
 H          2.4805061137       -2.0187325160       -0.6123600414
 H          0.2304450647       -3.5371587317       -2.0811690774
