  62
        -98.93933180
 C          1.4926614755        0.7579958516       -0.4821421398
 C          2.7898188792        1.3132965995       -0.5401668756
 C          3.9158323798        0.3631538022       -0.4968387870
 C          3.6628622022       -0.9557924376       -0.4005812297
 C          4.5942213324       -2.1503973649       -0.3816641899
 C          6.0932717043       -1.9707333487       -0.1574976570
 C          6.4767677378       -1.4910527198        1.2420954014
 H          7.5516881990       -1.2980347668        1.2552672840
 H          6.2751449851       -2.2967444870        1.9525722470
 C          5.7423680677       -0.2475168527        1.7369049212
 H          6.1025496771       -0.0254269307        2.7451894392
 H          4.6743070750       -0.4599844835        1.8169335237
 C          5.9365558288        1.0074729737        0.8882504669
 H          7.0027490111        1.2119149529        0.7723033425
 H          5.4937102105        1.8455902750        1.4334996454
 C          5.2893109235        0.9702926370       -0.5069961920
 H          5.9291475170        0.4648315533       -1.2263909635
 H          5.1651168191        2.0023509078       -0.8481291679
 H          6.5116627685       -1.3135593569       -0.9141261005
 H          6.5500567296       -2.9531646467       -0.3052497065
 H          4.4471039735       -2.6551227716       -1.3428462335
 H          4.1969302016       -2.8248206404        0.3834427886
 O          2.3885726091       -1.4440448503       -0.3477504156
 C          1.2780523075       -0.6152442447       -0.3761943155
 O          0.1888119869       -1.2102475420       -0.3012848368
 O          3.0036311335        2.5532704068       -0.6267168560
 C          0.2852488677        1.6750925030       -0.5310935872
 C         -0.5881481230        1.4440123135        0.6763460845
 C         -0.0047605174        1.4323627271        1.9413254340
 C         -0.7665538631        1.1973943930        3.0686201138
 C         -2.1256878351        0.9578735481        2.9603262573
 C         -2.7202077399        0.9828776588        1.7052970025
 C         -1.9545531116        1.2392911959        0.5753138954
 H         -2.4462869713        1.2773774399       -0.3811220172
 N         -4.0960978512        0.7640238731        1.5650606650
 S         -4.7319842902        0.0895860594        0.1784263093
 O         -4.7751616364        1.0730288889       -0.8752242638
 O         -6.0167285966       -0.4286571117        0.6000556079
 C         -3.6622328386       -1.2604770051       -0.2815807204
 C         -3.1612863138       -1.3221721983       -1.5648559275
 C         -2.3539376092       -2.3896164663       -1.9195909701
 C         -2.0600829906       -3.3708916176       -0.9877889937
 C         -2.5724144369       -3.2959345901        0.2971576943
 C         -3.3832035520       -2.2329523549        0.6566567165
 H         -3.7990054863       -2.1515926457        1.6481051271
 H         -2.3350486396       -4.0590888039        1.0210327305
 H         -1.4207089071       -4.1945818087       -1.2632054559
 H         -1.9474653664       -2.4468687716       -2.9171406515
 H         -3.4076988908       -0.5327141379       -2.2578678252
 H         -4.5736544780        0.4537818192        2.3976200780
 H         -2.7205772036        0.7593422496        3.8385664655
 H         -0.2983764263        1.1893629118        4.0415171603
 H          1.0597420976        1.6040217578        2.0264151454
 H          0.6856426411        2.6986614941       -0.4829983494
 C         -0.4479974292        1.4964345981       -1.8439236399
 C         -1.2523508591        2.6209429240       -2.4220051247
 C          0.0411445303        2.2176122575       -3.0624466119
 H          0.0108904801        1.7055427299       -4.0124913391
 H          0.8952995074        2.8683599508       -2.9444670445
 H         -2.1785115210        2.3889459138       -2.9268779012
 H         -1.2781673495        3.5499508747       -1.8724980057
 H         -0.8156366715        0.4842015531       -1.9751110891
