  62
        -98.93464251
 C         -2.5952081251       -0.0942982446        0.5503591547
 C         -2.2297018027        0.4950988699       -0.6844831169
 C         -1.8752996237        1.9260984497       -0.6524465712
 C         -1.8884513143        2.5868165993        0.5166251773
 C         -1.6081148195        4.0438186856        0.7943940267
 C         -0.4673294538        4.7202668804        0.0266046033
 C          0.7639111538        3.8372008393       -0.2225829730
 H          1.6567196316        4.3717918525        0.1082046512
 H          0.7015108234        2.9169296363        0.3623381498
 C          0.9483827529        3.4717501292       -1.6966701339
 H          1.9895635395        3.1811935811       -1.8546364453
 H          0.7534397112        4.3529920622       -2.3126792508
 C          0.0750714607        2.3146682256       -2.1755719565
 H          0.2645400583        2.1587118411       -3.2406338370
 H          0.3704065944        1.4004611555       -1.6525144910
 C         -1.4366198994        2.5093179370       -1.9651441493
 H         -1.7169023450        3.5562757498       -2.0553067466
 H         -1.9626043029        1.9402708141       -2.7366015647
 H         -0.8397071028        5.0915433237       -0.9272504429
 H         -0.1755992760        5.5945395285        0.6118239014
 H         -1.4014690670        4.0902259302        1.8668839278
 H         -2.5337406389        4.6024475262        0.6222238233
 O         -2.2342884510        1.9759708810        1.6879665629
 C         -2.5521501292        0.6313720507        1.7400042228
 O         -2.7798787595        0.2043033481        2.8926457921
 O         -2.2071277106       -0.1288981715       -1.7764490468
 C         -2.8598373873       -1.5871409561        0.6700689463
 C         -1.7701195172       -2.3264037263       -0.0700026930
 C         -1.9874083334       -3.3473614390       -0.9831793575
 C         -0.9153517807       -3.9407835455       -1.6303941440
 C          0.3794945169       -3.5147402035       -1.4056500628
 C          0.6058905558       -2.4841028105       -0.4967742768
 C         -0.4610932279       -1.9363380865        0.1901033890
 H         -0.2789985960       -1.1590327276        0.9191316235
 N          1.9000377221       -1.9679720204       -0.3136846533
 S          2.2320253763       -0.7553737738        0.7942614987
 O          2.1354656142       -1.2599380702        2.1496389666
 O          1.4416964777        0.4067328458        0.4824386385
 C          3.9384186751       -0.4465560043        0.3848478611
 C          4.2149828731        0.3952149057       -0.6754947349
 C          5.5365394625        0.6241627535       -1.0233173362
 C          6.5543511805        0.0089860099       -0.3093378106
 C          6.2619120628       -0.8320875308        0.7536552679
 C          4.9416437299       -1.0649188513        1.1062165990
 H          4.6668229916       -1.7011802815        1.9321147557
 H          7.0554684443       -1.3058634831        1.3086285870
 H          7.5823289560        0.1890536907       -0.5813780871
 H          5.7672501747        1.2798351679       -1.8473719452
 H          3.3889647462        0.8550246785       -1.1936206842
 H          2.6437243330       -2.6442059079       -0.4014727124
 H          1.2083390978       -3.9578362965       -1.9352609027
 H         -1.0957082774       -4.7370197177       -2.3367959478
 H         -2.9925007726       -3.6658601505       -1.2061737432
 H         -2.7396833988       -1.8062801750        1.7454781301
 C         -4.2663597182       -2.0257332363        0.2927616150
 C         -5.4086985820       -1.0551927011        0.3097770681
 C         -4.9156252036       -1.6091721255       -0.9913539943
 H         -5.5357767024       -2.3277448518       -1.5071550625
 H         -4.3490429757       -0.9656912485       -1.6448565978
 H         -6.3615419879       -1.3928557872        0.6893988989
 H         -5.1837155525       -0.0250186686        0.5465951730
 H         -4.4872302173       -3.0274938416        0.6488675068
