  62
        -98.94738988
 C          2.5632509851       -0.1453845594        0.3979754022
 C          2.1614494289       -0.7132029571       -0.8353533805
 C          1.7098694599       -2.1108122890       -0.7801878267
 C          1.6853908004       -2.7493054324        0.4036269837
 C          1.2251434574       -4.1634014091        0.6102641907
 C         -0.2684336429       -4.2294553345        0.9542270225
 C         -1.1630520817       -3.4410092075       -0.0026551669
 H         -2.1973361271       -3.6144737649        0.3050909931
 H         -0.9751847458       -2.3712795491        0.1222239727
 C         -0.9995876265       -3.8141262802       -1.4826713696
 H         -1.9917012683       -3.8919132065       -1.9320371738
 H         -0.5243463028       -4.7926161220       -1.5694151888
 C         -0.2182964482       -2.7888322586       -2.3070770074
 H         -0.3788944067       -3.0080313099       -3.3664906391
 H         -0.6150728671       -1.7900676940       -2.1100358586
 C          1.2973563389       -2.7583819202       -2.0718375242
 H          1.7037638083       -3.7703529956       -2.1423826166
 H          1.7439408518       -2.1508554719       -2.8645811260
 H         -0.4117893341       -3.8275511448        1.9601731499
 H         -0.5730986914       -5.2781680112        0.9580723441
 H          1.4262196956       -4.7378253389       -0.2921565208
 H          1.7967650275       -4.5895191505        1.4369852852
 O          2.0664058494       -2.1659752353        1.5703058854
 C          2.4959235468       -0.8499897802        1.5981730086
 O          2.7985844719       -0.4304158233        2.7358063286
 H          0.4220800494        1.0547044638        0.9895579243
 C          0.6060591143        1.9053415103        0.3486035809
 C          1.9058695950        2.2017114861       -0.0391512446
 C          2.1185731921        3.3114363776       -0.8472177301
 C          1.0490139712        4.0790643045       -1.2756251334
 C         -0.2477272878        3.7510697353       -0.9248303712
 C         -0.4688392092        2.6518434097       -0.1030682911
 N         -1.7687550146        2.2790077138        0.2918051307
 S         -2.0817866173        0.6142425933        0.3016268647
 O         -1.6385566834        0.0618699617        1.5584016977
 O         -1.5518698922        0.0093450204       -0.8969832452
 C         -3.8643810578        0.6126415038        0.2555554555
 C         -4.5188890193        0.2398280674       -0.9025799310
 C         -5.9049299026        0.2646425057       -0.9265146074
 C         -6.6076757566        0.6632220533        0.2002725542
 C         -5.9361821106        1.0336971875        1.3564310436
 C         -4.5511410575        1.0083341773        1.3881406080
 H         -3.9861445079        1.2761139089        2.2659153396
 H         -6.4858818459        1.3401128797        2.2316671935
 H         -7.6857935302        0.6826026883        0.1789086061
 H         -6.4290816800       -0.0266420078       -1.8224486493
 H         -3.9286002026       -0.0668139361       -1.7510982719
 H         -2.4832385846        2.7734492803       -0.2268760604
 H         -1.0813622276        4.3364050858       -1.2823338090
 H          1.2273224280        4.9356489741       -1.9079466864
 H          3.1203179943        3.5682883651       -1.1509084736
 C          3.0149327969        1.3030485244        0.4541074253
 H          3.1856447792        1.5262822557        1.5184455960
 C          4.3172278074        1.4838828204       -0.2983493709
 C          5.3065081740        2.5216422866        0.1374586858
 C          5.5954761808        1.0690606595        0.3641113449
 H          6.3557319266        0.5914203685       -0.2353062058
 H          5.5258106423        0.6820048409        1.3706334715
 H          5.0527337170        3.1255069747        0.9956125674
 H          5.8744261121        3.0420470793       -0.6189503509
 H          4.2137434977        1.2830312894       -1.3584381738
 O          2.1968476899       -0.0905326341       -1.9294317396
