  62
        -98.94168406
 C         -2.2204272384       -1.2624875999        0.3044020189
 C         -1.8338059819       -0.3158472384       -0.6770016460
 C         -2.6671761292        0.8945191308       -0.7550971966
 C         -3.7044152626        1.0564306564        0.0854505932
 C         -4.6725683511        2.2084740748        0.0929555352
 C         -4.1841561362        3.4361009850        0.8736638316
 C         -3.0711612181        4.2352614357        0.1950964626
 H         -3.3714926973        4.4803534775       -0.8241311606
 H         -2.9722584169        5.1756956316        0.7408068438
 C         -1.7080973814        3.5294916484        0.1760361606
 H         -0.9277516356        4.2331759158        0.4760972990
 H         -1.7076557115        2.7216811981        0.9124216622
 C         -1.3075062521        2.9623424892       -1.1856076063
 H         -0.3359483550        2.4756762338       -1.0769727353
 H         -1.1934567143        3.7797338245       -1.9008416452
 C         -2.2950737596        1.9398995897       -1.7638723919
 H         -3.1878961947        2.4477089394       -2.1284402147
 H         -1.8137704289        1.4333763769       -2.6039236759
 H         -5.0430156771        4.0964723432        1.0137303507
 H         -3.8506759973        3.1126360232        1.8626897273
 H         -4.9054593845        2.4977579972       -0.9322722144
 H         -5.5858770862        1.8415649404        0.5665642276
 O         -4.0121225284        0.1458290419        1.0475177265
 C         -3.2722077745       -1.0175530357        1.1912516118
 O         -3.6404427642       -1.7416789961        2.1381205838
 H         -0.1033193824       -0.7517027896        1.8280836176
 C          0.5574888693       -1.3722050023        1.2340306466
 C          0.0118582813       -2.3761112007        0.4430618480
 C          0.8729136278       -3.1529036313       -0.3213970624
 C          2.2400441249       -2.9384349163       -0.2774642344
 C          2.7782750203       -1.9387259245        0.5104568043
 C          1.9232215128       -1.1365757063        1.2566115266
 N          2.4499242389       -0.0845200536        2.0217593450
 S          3.7336018422        0.7977885450        1.4148009574
 O          4.9705110953        0.1323267607        1.7457974182
 O          3.5727885429        2.1229011825        1.9745411497
 C          3.5527695995        0.8470808521       -0.3612427484
 C          4.6773040766        0.6848369123       -1.1460015698
 C          4.5463150316        0.7291836291       -2.5246336282
 C          3.2969775593        0.9227796474       -3.0934796148
 C          2.1773205836        1.0834720064       -2.2924764428
 C          2.3053820948        1.0540954925       -0.9137436077
 H          1.4410111095        1.1645426402       -0.2782225940
 H          1.1978030220        1.2073303176       -2.7255539549
 H          3.1918966686        0.9443160316       -4.1666765683
 H          5.4160275307        0.6044633855       -3.1494758145
 H          5.6256959628        0.5167414883       -0.6617274251
 H          1.7552142215        0.5149722983        2.4411702213
 H          3.8412549858       -1.7641510529        0.5589033563
 H          2.8963983711       -3.5559909840       -0.8710721979
 H          0.4763032007       -3.9208761991       -0.9639523943
 C         -1.4841594763       -2.5784129959        0.4860384959
 H         -1.7392985685       -2.9045032208        1.5087641994
 C         -1.9657834393       -3.6798715521       -0.4492932443
 C         -3.3193360874       -3.6243271162       -1.0910505674
 C         -2.0870582792       -3.4652688609       -1.9271900096
 H         -1.8105845881       -4.2729039436       -2.5889668100
 H         -1.8453213594       -2.4851548885       -2.3060960243
 H         -3.9315826690       -2.7535426967       -0.9052632649
 H         -3.8834338194       -4.5417820767       -1.1696729610
 H         -1.6377091947       -4.6617143473       -0.1226445836
 O         -0.8572302794       -0.4586177679       -1.4542003099
