  62
        -98.94443137
 C         -1.7077164692       -1.4457724934        0.5618128014
 C         -2.6337035840       -1.0055521899       -0.4160876630
 C         -3.3981191436        0.2011124539       -0.0684941156
 C         -3.1527316608        0.8505989633        1.0827812908
 C         -3.8543359541        2.0888694163        1.5715471417
 C         -3.2959925106        3.3984966691        0.9976597356
 C         -3.6126361995        3.6530880513       -0.4766300837
 H         -4.6869860993        3.5568316224       -0.6367404060
 H         -3.3464955197        4.6911088860       -0.6864138595
 C         -2.8605914133        2.7405205330       -1.4561159319
 H         -2.0184389207        2.2673046994       -0.9466644487
 H         -2.4488320560        3.3398223047       -2.2710156269
 C         -3.7216474568        1.6478878570       -2.0885337561
 H         -4.4998738104        2.1012434693       -2.7065547553
 H         -3.0843172073        1.0426842391       -2.7378119122
 C         -4.3875766742        0.7106015542       -1.0730444285
 H         -5.2094930009        1.2209938510       -0.5714250529
 H         -4.7879104898       -0.1508312249       -1.6130546117
 H         -2.2143976328        3.4119490238        1.1462615278
 H         -3.7211021715        4.2164937248        1.5840824735
 H         -4.9189058983        2.0171358544        1.3466349806
 H         -3.7308752143        2.1086668255        2.6567193234
 O         -2.2145122428        0.4263924328        1.9717443909
 C         -1.4725888240       -0.7161306535        1.7311128618
 O         -0.6407446142       -0.9799491581        2.6236859893
 H          1.5691831371       -2.0846092590        1.4225418164
 C          1.5586063522       -1.9063841487        0.3556452545
 C          0.4094728132       -2.1931357315       -0.3674381015
 C          0.3958406377       -1.9270438221       -1.7325333120
 C          1.5092734944       -1.3854536511       -2.3498080150
 C          2.6499708937       -1.0879967106       -1.6234243189
 C          2.6691564224       -1.3477142852       -0.2598368066
 N          3.8090353542       -1.0138508412        0.4972118880
 S          4.3798566017        0.5487594955        0.3162241095
 O          5.2202720737        0.6189661859       -0.8531820264
 O          5.0241476600        0.8716420150        1.5700732795
 C          2.9383754026        1.5759444852        0.0754008690
 C          2.8896875256        2.4298922587       -1.0077958580
 C          1.7782722953        3.2398234781       -1.1756085553
 C          0.7345254258        3.1777605010       -0.2655302433
 C          0.7934049466        2.3067920801        0.8114050464
 C          1.9058099688        1.5006311582        0.9891335114
 H          1.9631253084        0.8213821677        1.8251940311
 H         -0.0211326216        2.2375673107        1.5166492286
 H         -0.1290185357        3.8110270152       -0.3968728793
 H          1.7268214204        3.9152632862       -2.0141674259
 H          3.7207276404        2.4415319981       -1.6941522259
 H          3.7188027501       -1.2427905611        1.4769698918
 H          3.5193812698       -0.6502239269       -2.0870052503
 H          1.4865662444       -1.1809261966       -3.4093241389
 H         -0.5037606380       -2.1161486497       -2.2969603952
 C         -0.8167870860       -2.6667050766        0.3737378230
 H         -0.5011345321       -2.9668147506        1.3822010775
 C         -1.4969798551       -3.8482884187       -0.2814088521
 C         -0.8617561960       -5.1996594872       -0.1577426002
 C         -2.1290516763       -4.8963436041        0.5822894017
 H         -3.0469129366       -5.3546495818        0.2461387894
 H         -2.0753361843       -4.7650583734        1.6535698271
 H         -0.9067813251       -5.8691045194       -1.0028373106
 H          0.0527056584       -5.2729681730        0.4119029423
 H         -1.9973403969       -3.6090661515       -1.2090848811
 O         -2.8355340778       -1.5709485573       -1.5211087987
