  62
        -98.94489817
 C          1.8575000618        1.0837588139       -0.1826783451
 C          3.0064171041        1.1552320175        0.6509315380
 C          4.2289373549        0.5328696526        0.1348789854
 C          4.2200529440       -0.0408382951       -1.0815662254
 C          5.3912703560       -0.6933471234       -1.7640150048
 C          5.6224403927       -2.1528293986       -1.3491053407
 C          6.1867390978       -2.3471813556        0.0588672693
 H          6.5023168636       -3.3895697346        0.1360978963
 H          7.0761776608       -1.7282984280        0.1811833096
 C          5.1899421119       -2.0488916465        1.1877350354
 H          4.1740862903       -2.0412315044        0.7852757436
 H          5.2313418269       -2.8485001457        1.9308414858
 C          5.4404799655       -0.7328369059        1.9243280045
 H          6.3994239484       -0.7814614239        2.4449402751
 H          4.6555608158       -0.6064380907        2.6743852789
 C          5.4373342493        0.5072835064        1.0209222192
 H          5.4025445599        1.3950075597        1.6570663149
 H          6.3482280678        0.5399457834        0.4234880952
 H          4.6793279884       -2.6966614798       -1.4416566731
 H          6.3269116305       -2.5865536413       -2.0626632011
 H          5.1801357413       -0.6695521930       -2.8353297750
 H          6.2948748852       -0.1130862513       -1.5749979004
 O          3.1084205067       -0.0728500881       -1.8597482124
 C          1.9010810227        0.4606357717       -1.4296919712
 O          0.9780968399        0.3092074032       -2.2570103489
 H         -0.6109286459       -0.3454161021       -0.9002159187
 C         -0.8997860407       -0.2884617623        0.1387512032
 C         -0.3554641549        0.7031963938        0.9425335220
 C         -0.7338366571        0.7561946772        2.2786678579
 C         -1.6347090162       -0.1598153202        2.7948215682
 C         -2.1763857916       -1.1455534151        1.9897518005
 C         -1.7967628877       -1.2107773762        0.6554523201
 N         -2.3592159129       -2.1998945607       -0.1798776678
 S         -4.0300840881       -2.1321871061       -0.3146100736
 O         -4.6240107167       -2.7462835553        0.8464769252
 O         -4.3481298027       -2.7422437063       -1.5861070469
 C         -4.3948341144       -0.3863453827       -0.3334423334
 C         -4.0131445894        0.3435505863       -1.4415969417
 C         -4.2112329134        1.7142265708       -1.4416515161
 C         -4.7778311508        2.3292050542       -0.3357094887
 C         -5.1559572821        1.5821931448        0.7687435133
 C         -4.9608644637        0.2104182878        0.7743905199
 H         -5.2376961483       -0.4080288923        1.6122278713
 H         -5.5960666424        2.0641106970        1.6266583907
 H         -4.9254448071        3.3977404701       -0.3355346838
 H         -3.9168106332        2.2953973611       -2.3010599078
 H         -3.5759264625       -0.1666729724       -2.2854203638
 H         -1.9418797770       -2.2114530403       -1.1002225944
 H         -2.8867065932       -1.8626957960        2.3685702989
 H         -1.9191313660       -0.1050988734        3.8344077578
 H         -0.3093056323        1.5173409472        2.9166432327
 C          0.5911303999        1.7249580472        0.3595780224
 H          0.9310307627        2.3713815076        1.1796706352
 C         -0.1362898596        2.5830022415       -0.6584700900
 C         -1.0713017290        3.6479519827       -0.1732089860
 C          0.2351041630        4.0268908981       -0.8025284367
 H          0.2289536448        4.4629353462       -1.7902282264
 H          1.0194822581        4.4072467365       -0.1644252228
 H         -1.9799420982        3.8240678642       -0.7268343248
 H         -1.1745695616        3.7731993880        0.8936706667
 H         -0.4050312277        2.0464501965       -1.5588220003
 O          3.0087380574        1.7252739053        1.7739114714
