  62
        -98.93619942
 C         -1.9368976696       -1.3987384206        0.3051822578
 C         -1.6228546600       -0.0520298502        0.0043832692
 C         -2.6843569704        0.9261126292        0.2827880900
 C         -3.8557198503        0.5185727983        0.8027931294
 C         -5.0236198007        1.3982907075        1.1577089800
 C         -5.9448485206        1.7197922584       -0.0269780999
 C         -5.3713938007        2.7033011396       -1.0478958688
 H         -6.1942651906        3.0050118500       -1.6990172586
 H         -5.0202187911        3.5975111592       -0.5321135278
 C         -4.2419059903        2.1296468709       -1.9151092791
 H         -4.2545468100        1.0387703008       -1.8559982502
 H         -4.4154944502        2.3939256318       -2.9607785789
 C         -2.8440307206        2.6284794509       -1.5489717383
 H         -2.7793973409        3.7033633011       -1.7323111472
 H         -2.1215980403        2.1319666718       -2.2021537087
 C         -2.4346773308        2.3549135696       -0.0958084685
 H         -1.3615556008        2.5401234699       -0.0058956181
 H         -2.9665409911        3.0264615688        0.5778478320
 H         -6.8636019708        2.1472996977        0.3811034104
 H         -6.2080126002        0.7857259988       -0.5287975908
 H         -4.6625777311        2.3265117872        1.6011464610
 H         -5.6039736707        0.8564715066        1.9075611393
 O         -4.1118609800       -0.7852411321        1.0929846980
 C         -3.1732317796       -1.7698917216        0.8374327572
 O         -3.5475480893       -2.9237980320        1.1315288160
 O         -0.5205879100        0.3292139006       -0.4620014102
 C         -0.9410086992       -2.5236195900        0.0444828669
 C          0.3778567906       -2.1803103203        0.6924077475
 C          0.3978444003       -2.2393059917        2.0880141674
 C          1.5364107901       -1.9362717620        2.8062816080
 C          2.6981260601       -1.5683163510        2.1497516886
 C          2.6949120303       -1.5026621396        0.7634260686
 C          1.5424765206       -1.8014076092        0.0442993181
 H          1.5919776007       -1.6938403682       -1.0224999918
 N          3.8719104004       -1.1765957185        0.0633071692
 S          3.9112944902        0.0829148726       -1.0391936095
 O          2.9404158204       -0.1364421967       -2.0775074500
 O          5.2944893002        0.1453592535       -1.4618902392
 C          3.5316835295        1.5357349015       -0.0759641882
 C          2.2228230994        1.8013109607        0.2725696518
 C          1.9639438788        2.8977635798        1.0820102729
 C          3.0033829985        3.7006697997        1.5248197039
 C          4.3121467687        3.4176051005        1.1638728939
 C          4.5811025392        2.3219638014        0.3604651428
 H          5.5814139293        2.0642582520        0.0516400928
 H          5.1200624484        4.0436960104        1.5070410947
 H          2.7908972881        4.5510662390        2.1535928747
 H          0.9448190587        3.1132718592        1.3630288729
 H          1.4267442096        1.1681683308       -0.0874659289
 H          4.6887308502       -1.1158600688        0.6552143194
 H          3.5959344599       -1.3384114813        2.7034209290
 H          1.5216904999       -1.9882172331        3.8844274679
 H         -0.5079828497       -2.5266971025        2.6054645170
 H         -1.3413962090       -3.3840073907        0.6059315659
 C         -1.0268298888       -2.9383077686       -1.4177284235
 C         -0.4238811788       -2.2201140472       -2.5850043227
 C          0.0708124416       -3.5857176875       -2.2063596240
 H         -0.1903863080       -4.4150815869       -2.8473557149
 H          1.0460228115       -3.6756371276       -1.7554608139
 H         -1.0277869686       -2.1285694265       -3.4775383427
 H          0.1964278909       -1.3558270672       -2.4089416717
 H         -2.0239377986       -3.3369797487       -1.5994186041
