  62
        -98.94713179
 C         -1.5937394608       -1.5659959512       -0.2313495993
 C         -2.7469485809       -1.2179727111        0.5189441805
 C         -3.5452548709       -0.1042354814       -0.0029055699
 C         -3.1698344809        0.5105517483       -1.1390151401
 C         -3.8971811510        1.6398648080       -1.8178943205
 C         -3.5714577212        3.0327698482       -1.2611566510
 C         -4.1380327714        3.3288934586        0.1276736689
 H         -4.0096317915        4.3986811987        0.3042069286
 H         -5.2096041413        3.1268861185        0.1315693689
 C         -3.4616715414        2.5528266091        1.2667466392
 H         -2.5089626113        2.1463236790        0.9197973494
 H         -3.2395073515        3.2340544093        2.0910031690
 C         -4.3032145613        1.4116973591        1.8381828695
 H         -3.7189185513        0.9097934995        2.6134826197
 H         -5.2041063214        1.8164963392        2.3046269593
 C         -4.7207360111        0.3582663988        0.8033609998
 H         -5.4976088311        0.7573841784        0.1514553396
 H         -5.1213487310       -0.5076052911        1.3360269201
 H         -2.4873031812        3.1619414483       -1.2465045409
 H         -3.9817697413        3.7646359879       -1.9608866112
 H         -3.6013654609        1.6125889077       -2.8691495305
 H         -4.9721967310        1.4669156579       -1.7573628206
 O         -2.0635187808        0.1406743382       -1.8358058499
 C         -1.2368117007       -0.8846778816       -1.3946090695
 O         -0.2487384007       -1.0781460417       -2.1291542194
 O         -3.0939990709       -1.8157248508        1.5710597407
 C         -0.7107525207       -2.6801970409        0.3095232511
 C          0.5491519192       -2.0378575206        0.8335050110
 C          0.5767751191       -1.5314743902        2.1299835508
 C          1.6819878689       -0.8448663199        2.5980321407
 C          2.7719032690       -0.6238268101        1.7739168907
 C          2.7448596791       -1.1119169705        0.4744351109
 C          1.6531897693       -1.8374664908        0.0191000610
 H          1.6449220494       -2.2010481411       -0.9959541989
 N          3.8154819392       -0.8225221806       -0.3935618691
 S          4.2727997290        0.7888456894       -0.4553622096
 O          4.7434850291        1.0095457890       -1.8051579997
 O          5.2365205589        1.0481276998        0.5866928204
 C          2.7927640388        1.7392658493       -0.1385652101
 C          2.7955185887        2.6729232097        0.8784541196
 C          1.6436404286        3.4011831096        1.1272809293
 C          0.5097945386        3.1828541192        0.3600821193
 C          0.5247655988        2.2437396989       -0.6589982504
 C          1.6740740689        1.5140665189       -0.9154882701
 H          1.6864368691        0.7718099087       -1.6983412998
 H         -0.3533338211        2.0573577386       -1.2579660904
 H         -0.3900028614        3.7448794892        0.5578211790
 H          1.6305203884        4.1319181899        1.9197596491
 H          3.6962220886        2.8046751000        1.4558602097
 H          3.6742472493       -1.1819421410       -1.3272191990
 H          3.6348764189       -0.0722815398        2.1107542906
 H          1.6917390288       -0.4657186996        3.6083608506
 H         -0.2890009910       -1.6693572601        2.7620374708
 H         -1.2624015307       -3.1002676507        1.1607264712
 C         -0.4662088805       -3.7795088012       -0.7020377585
 C          0.1135155697       -5.0810112210       -0.2370905880
 C         -1.3201397603       -5.0100069613       -0.6668284782
 H         -1.6022224102       -5.4677823417       -1.6031996980
 H         -2.0850661604       -5.0668145412        0.0936433918
 H          0.8182223598       -5.5907099011       -0.8762386178
 H          0.3227792696       -5.1834758307        0.8169805720
 H         -0.1716985904       -3.4149498015       -1.6782413886
