  62
        -98.93373466
 C         -2.1640685304       -0.7235086394        0.1251190000
 C         -3.0302739303       -0.0660417399        1.0332896404
 C         -3.8841161402        0.9993496905        0.4821108310
 C         -3.7585049503        1.3367738912       -0.8125055188
 C         -4.4902792902        2.4098444517       -1.5793888882
 C         -5.9975701802        2.5555726717       -1.3301269381
 C         -6.7345494703        1.2441192116       -1.0212288887
 H         -7.6019230403        1.1610503920       -1.6786360488
 H         -6.0857731704        0.3916927116       -1.2299890892
 C         -7.2325012802        1.1649204008        0.4239861612
 H         -7.6630546001        2.1301689107        0.6992909518
 H         -8.0323444703        0.4226015009        0.4798482109
 C         -6.1800755802        0.7737661302        1.4609058810
 H         -5.9077455403       -0.2779106198        1.3346806804
 H         -6.6316733102        0.8687239097        2.4513501210
 C         -4.8823336801        1.5976912601        1.4310788614
 H         -5.0828517901        2.6413079202        1.2009759920
 H         -4.4257728401        1.5413028295        2.4232706413
 H         -6.1663749701        3.2577230413       -0.5148639277
 H         -6.4221500002        3.0090939022       -2.2273271978
 H         -3.9999908201        3.3666586816       -1.3768997877
 H         -4.3141437503        2.1756721823       -2.6320276583
 O         -2.8592597703        0.7276233816       -1.6349039792
 C         -2.0478967504       -0.3136261187       -1.2030298698
 O         -1.2896924905       -0.7582149183       -2.0832588001
 H          0.2192738497        0.2771853299        1.0839368604
 C          0.7720809496       -0.4870235199        0.5494246800
 C          0.1321090195       -1.6778088097        0.2249561494
 C          0.8524385594       -2.6487467393       -0.4569460912
 C          2.1723445594       -2.4240542593       -0.8085884011
 C          2.8002183095       -1.2340100995       -0.4932021405
 C          2.0896906597       -0.2546104998        0.1890470101
 N          2.7159516998        0.9674778800        0.4975241807
 S          4.1732469998        0.9109279794        1.3310308206
 O          4.2462251697       -0.2494103911        2.1892466000
 O          4.2847280799        2.1979246590        1.9830450713
 C          5.4051761697        0.8011972800        0.0507585805
 C          5.4050864398        1.7639576206       -0.9395443689
 C          6.3663251597        1.6984846710       -1.9355121190
 C          7.3085262596        0.6805814309       -1.9216441596
 C          7.2975296696       -0.2758193196       -0.9179542001
 C          6.3373092197       -0.2175330601        0.0802437799
 H          6.2849125896       -0.9424260905        0.8767342195
 H          8.0310451395       -1.0659218197       -0.9088356806
 H          8.0556370896        0.6328325313       -2.6980902697
 H          6.3773588798        2.4399181915       -2.7181567886
 H          4.6578373498        2.5394881506       -0.9125218085
 H          2.0964709698        1.6422625898        0.9226424811
 H          3.8253961396       -1.0539307594       -0.7726951304
 H          2.7180644094       -3.1862534990       -1.3435335416
 H          0.3765942594       -3.5755788492       -0.7311965517
 C         -1.3008762805       -1.8490204098        0.6640697793
 H         -1.3301352104       -1.7114308504        1.7589456594
 C         -1.8546690906       -3.2401505296        0.3925116786
 C         -3.3210548606       -3.4601928694        0.1744560985
 C         -2.3587110607       -3.6520707388       -0.9570504416
 H         -2.1598110208       -4.6593285286       -1.2927996622
 H         -2.3331944206       -2.9154285684       -1.7444556212
 H         -3.7803212507       -4.3313271096        0.6171580081
 H         -3.9615795905       -2.5901356193        0.1588991390
 H         -1.3398804406       -3.9997511800        0.9729344582
 O         -3.0799735503       -0.3487069305        2.2607654902
