  62
        -98.94011903
 C          2.5281693543        0.0716664879       -0.4722604403
 C          2.2096276304        0.7506201831        0.7268767908
 C          1.7611709458        2.1478599965        0.5906326399
 C          1.6238396407        2.6782648180       -0.6364271238
 C          1.2215511925        4.0784070243       -1.0334277101
 C          0.1280676097        4.7764646486       -0.2186868930
 C         -1.0103575604        3.8624892256        0.2573273769
 H         -1.9659318630        4.3016714141       -0.0364190261
 H         -0.9413581216        2.8833209637       -0.2223209003
 C         -1.0210667111        3.6678145418        1.7746459269
 H         -0.8225134628        4.6263536955        2.2603545946
 H         -2.0187301129        3.3424597290        2.0777989014
 C         -0.0311894173        2.6234208408        2.2852915619
 H         -0.0906087854        2.6004905809        3.3764657937
 H         -0.3294250329        1.6373332744        1.9199043722
 C          1.4333407168        2.8532673486        1.8758504040
 H          1.6668022383        3.9144390559        1.8221358594
 H          2.0713684973        2.3947728375        2.6365227386
 H          0.5748218310        5.2690413114        0.6438132529
 H         -0.2790187727        5.5643322228       -0.8553308548
 H          2.1228802840        4.6996994735       -1.0269520661
 H          0.9004412950        3.9928515033       -2.0749748097
 O          1.9044067483        1.9704266769       -1.7706101160
 C          2.3520308237        0.6635202069       -1.7198671962
 O          2.5635948654        0.1463574139       -2.8382398514
 O          2.3188295511        0.2256096982        1.8660096691
 C          2.9672138539       -1.3820098246       -0.4303700160
 C          1.8684856561       -2.2004513121        0.2046423645
 C          2.0799398922       -3.1472688902        1.1978569146
 C          1.0070743249       -3.8129453031        1.7666378872
 C         -0.2898254109       -3.5378662885        1.3746435385
 C         -0.5089676573       -2.6067958197        0.3648818188
 C          0.5683297832       -1.9709794535       -0.2271287800
 H          0.3871988435       -1.2528791394       -1.0154068837
 N         -1.8078377113       -2.2994629357       -0.0776449415
 S         -2.0952599698       -0.7021789390       -0.5562958675
 O         -1.7731778168       -0.5770139995       -1.9574594121
 O         -1.4400676695        0.2176384583        0.3420085886
 C         -3.8640633685       -0.6161174663       -0.3454710950
 C         -4.3865777154        0.0323287019        0.7570551486
 C         -5.7622337531        0.0654155464        0.9255357494
 C         -6.5863041145       -0.5505525267       -0.0041627708
 C         -6.0468642626       -1.1971310081       -1.1066578837
 C         -4.6727589812       -1.2319953700       -1.2822407782
 H         -4.2074345421       -1.7124555914       -2.1271181075
 H         -6.6907007376       -1.6723713942       -1.8289377218
 H         -7.6561437252       -0.5243801255        0.1296953083
 H         -6.1840008883        0.5703569292        1.7795303070
 H         -3.7048313618        0.5000761374        1.4494053095
 H         -2.5258801939       -2.6356710804        0.5499310786
 H         -1.1256964703       -4.0353789539        1.8424958270
 H          1.1834441412       -4.5413588850        2.5435990711
 H          3.0817519466       -3.3524262524        1.5379413964
 H          3.0694368674       -1.6983497382       -1.4795129410
 C          4.3076705940       -1.5213854721        0.2590795894
 C          5.2303534636       -2.6442511925       -0.1058533350
 C          5.5549256642       -1.2420145249       -0.5224226599
 H          6.3678098634       -0.7300074481       -0.0299893840
 H          5.4364501659       -0.9740225729       -1.5625522752
 H          5.8263985517       -3.0958400625        0.6726665783
 H          4.9005966676       -3.3340870518       -0.8679950039
 H          4.2789812921       -1.1921496320        1.2911923817
