  62
        -98.94130353
 C         -2.3372521243       -1.1051825521       -0.5025945780
 C         -3.6558173734       -1.0043743014        0.0078396859
 C         -4.4284155559        0.1675640275       -0.4219685870
 C         -3.8568769728        1.0646180663       -1.2460904599
 C         -4.5053425873        2.3354808176       -1.7115386486
 C         -4.1855275190        3.5008860498       -0.7648609521
 C         -4.4201169222        3.1806796992        0.7115186360
 H         -3.7062009856        2.4163105444        1.0283435712
 H         -4.1917498770        4.0849075977        1.2800948141
 C         -5.8448478030        2.7141829685        1.0421412337
 H         -6.5224569780        2.9931705176        0.2344671950
 H         -6.1820434601        3.2324290726        1.9422418322
 C         -5.9737771178        1.2148081671        1.3167710106
 H         -5.2300151912        0.9135723310        2.0589213868
 H         -6.9607728862        1.0321650774        1.7498626897
 C         -5.8336077506        0.2986162149        0.0946037968
 H         -6.1363387127       -0.7077629280        0.3980574576
 H         -6.5053242515        0.6358965881       -0.6971819126
 H         -4.7959055923        4.3582970116       -1.0542042848
 H         -3.1348312025        3.7726431776       -0.8917537146
 H         -4.1238047059        2.5724048010       -2.7060640814
 H         -5.5817767536        2.1871960139       -1.7711308856
 O         -2.5907367271        0.9351876587       -1.7162331857
 C         -1.7939457406       -0.1410978473       -1.3518590403
 O         -0.6546578712       -0.1197862210       -1.8563369367
 H          1.1293560726       -1.7344036721       -0.6879780126
 C          0.8920962446       -1.5089860112        0.3395549968
 C         -0.3835109077       -1.7551616164        0.8208975882
 C         -0.6731969452       -1.4250613910        2.1422900961
 C          0.2916121799       -0.8643110921        2.9573943201
 C          1.5639440205       -0.6151722505        2.4719842173
 C          1.8591138387       -0.9319317117        1.1534007392
 N          3.1506231094       -0.6854474191        0.6448344708
 S          3.8260822518        0.8249578186        0.9907766454
 O          4.3592852181        0.7858873839        2.3304141548
 O          2.8730812285        1.8799595046        0.7249719700
 C          5.1629972126        0.8721569495       -0.1858233051
 C          4.9465790817        1.4421723389       -1.4260278006
 C          5.9809289240        1.4506124064       -2.3486594602
 C          7.2050218917        0.8883500991       -2.0184424992
 C          7.4061134170        0.3187109948       -0.7699747196
 C          6.3768584389        0.3082547361        0.1578687114
 H          6.4878639385       -0.1145286068        1.1425505920
 H          8.3597829910       -0.1157244877       -0.5172668107
 H          8.0073569247        0.8967496271       -2.7391502622
 H          5.8272408901        1.8942749373       -3.3192552663
 H          3.9804795480        1.8731573120       -1.6378586454
 H          3.1871847008       -0.8568072410       -0.3517474578
 H          2.3219825307       -0.1625742659        3.0905306564
 H          0.0527888297       -0.6126909749        3.9800843726
 H         -1.6725514851       -1.6003621766        2.5165864069
 C         -1.4875044152       -2.2854274232       -0.0597871941
 H         -2.1510119705       -2.9040789217        0.5593634938
 C         -1.0015660101       -3.1125142040       -1.2307907191
 C         -0.4405249974       -4.4793252580       -0.9791949545
 C         -1.7765991809       -4.3274977189       -1.6401530098
 H         -1.8609007994       -4.5526752822       -2.6927185071
 H         -2.6609628062       -4.5712476201       -1.0700544262
 H          0.3937956264       -4.8133339227       -1.5766825384
 H         -0.4162328457       -4.8248759639        0.0431656074
 H         -0.5610199424       -2.5188971945       -2.0225325915
 O         -4.1627307185       -1.8570139465        0.7847061355
