  62
        -98.94371224
 C         -1.2304703371       -0.9146795198        0.2548976251
 C         -1.6732996424        0.2457420059        0.9384794496
 C         -2.6874425201        1.0577735148        0.2551074464
 C         -3.0689504341        0.7173637739       -0.9889353654
 C         -4.1252780835        1.4248175819       -1.7862416340
 C         -5.5107098904        0.8087595511       -1.5450482800
 C         -5.8575238602        0.6270316142       -0.0673276313
 H         -6.8671074961        0.2135846917       -0.0188799010
 H         -5.1847184945       -0.1157745955        0.3673038858
 C         -5.7918540640        1.9163794124        0.7631400175
 H         -6.6771480769        1.9682744437        1.4003241475
 H         -5.8166129211        2.7838780739        0.1026414189
 C         -4.5739752541        2.0159295726        1.6834703377
 H         -4.4934667263        1.1060841217        2.2836319320
 H         -4.7353409182        2.8494797202        2.3720833787
 C         -3.2284235326        2.2540514696        0.9862730459
 H         -3.3063405806        3.1117732215        0.3143759643
 H         -2.4901719784        2.4916925253        1.7580971599
 H         -6.2584528416        1.4458721053       -2.0207912289
 H         -5.5419082504       -0.1707937699       -2.0278202678
 H         -4.1309523287        2.4791370616       -1.5154603577
 H         -3.8738628358        1.3344040302       -2.8445289392
 O         -2.5563808915       -0.3494821121       -1.6513468731
 C         -1.6227025706       -1.1894634390       -1.0561114656
 O         -1.2362362374       -2.1136425582       -1.7953411741
 H          1.0082952951        0.1046665205       -0.4710001079
 C          1.5203625984       -0.8387650004       -0.5812473585
 C          1.0119100531       -1.9669020400        0.0492051082
 C          1.6579571432       -3.1802608127       -0.1466106289
 C          2.7773136052       -3.2512461889       -0.9587161372
 C          3.2885394439       -2.1217825750       -1.5708798843
 C          2.6465380382       -0.9024578710       -1.3831845195
 N          3.1214566529        0.2708873971       -1.9859129111
 S          2.9131483149        1.7433913153       -1.2283223435
 O          1.5492215080        2.1938325561       -1.3597905571
 O          3.9164348136        2.5957718762       -1.8310269422
 C          3.3235527802        1.4492366673        0.4834222613
 C          4.6268295665        1.0943111285        0.7747519534
 C          4.9714884139        0.8195321741        2.0875645554
 C          4.0101152511        0.8989814673        3.0840959881
 C          2.7087222437        1.2634427819        2.7774328702
 C          2.3593990242        1.5434182463        1.4655562691
 H          1.3509980949        1.8222520994        1.2009273548
 H          1.9530566709        1.3239656527        3.5446044462
 H          4.2752744535        0.6780502276        4.1059433477
 H          5.9843432055        0.5408765895        2.3295832614
 H          5.3484281572        1.0520437129       -0.0247039434
 H          4.0141943784        0.1923321625       -2.4489333122
 H          4.1633572704       -2.1809294687       -2.1997852679
 H          3.2637822460       -4.2024896547       -1.1122009856
 H          1.2764916672       -4.0746561977        0.3174101112
 C         -0.1890935715       -1.7777470843        0.9428246559
 H          0.1407419116       -1.1610198181        1.7973514699
 C         -0.7249918869       -3.0743573169        1.5329431801
 C         -2.1907189210       -3.2740393680        1.7749753245
 C         -1.4911585758       -4.0708955414        0.7171693695
 H         -1.3202090522       -5.1219793248        0.8991203505
 H         -1.6768452323       -3.8277095473       -0.3168645177
 H         -2.8625068722       -2.4890105011        1.4580489806
 H         -2.4986780328       -3.7729464658        2.6817888858
 H         -0.0616258267       -3.4794852489        2.2907903525
 O         -1.2328439525        0.5895005101        2.0686620409
