  62
        -98.94667280
 C         -1.1715082571        1.3620353728       -0.2833319471
 C         -1.3638759127        0.3230012811        0.6594424769
 C         -2.3482709016       -0.7017441736        0.2870943380
 C         -2.9391031063       -0.6643578667       -0.9199350354
 C         -3.9509230226       -1.6458877380       -1.4454841606
 C         -5.3907477724       -1.3426553521       -1.0081192422
 C         -5.6986438094       -1.6409238969        0.4599559450
 H         -6.7833617970       -1.5932553212        0.5751220031
 H         -5.3918858350       -2.6605397453        0.6951616156
 C         -5.0545928367       -0.6648715747        1.4546023303
 H         -4.7444141427        0.2406066875        0.9279510594
 H         -5.7954822833       -0.3627948483        2.1983752885
 C         -3.8552021469       -1.2311108321        2.2153673089
 H         -4.1821735248       -2.0569726276        2.8510890392
 H         -3.4600624243       -0.4444478753        2.8631485011
 C         -2.7133477388       -1.7267429406        1.3177524879
 H         -2.9936707112       -2.6651123897        0.8410301378
 H         -1.8336048277       -1.8974302361        1.9424156080
 H         -6.0550866170       -1.9503456115       -1.6268636055
 H         -5.6080014511       -0.2932730115       -1.2204769606
 H         -3.9035248020       -1.5903228811       -2.5351384754
 H         -3.6863545655       -2.6567955986       -1.1343143108
 O         -2.6569427802        0.2973336390       -1.8372061158
 C         -1.8078042904        1.3445858703       -1.5297031990
 O         -1.6941810471        2.1905721430       -2.4390439069
 O         -0.7668100612        0.2329078279        1.7654447446
 C         -0.2778096038        2.5684114971       -0.0311431057
 C          1.1732570506        2.2184561713       -0.2506808439
 C          1.8894551911        2.7649173657       -1.3090379315
 C          3.2115118313        2.4137242865       -1.5244287541
 C          3.8434501995        1.5044525131       -0.6942665242
 C          3.1305402472        0.9471116701        0.3586660186
 C          1.8120240576        1.3112325272        0.5828836589
 H          1.2598945133        0.8593426424        1.3936496356
 N          3.7487209768       -0.0297888946        1.1766630156
 S          3.9664888868       -1.5094140879        0.4223798222
 O          4.4023880987       -2.4225412941        1.4536864767
 O          4.8630443780       -1.3272001336       -0.6904544669
 C          2.3526492356       -1.9871001991       -0.1726743400
 C          1.6069097092       -2.8865153746        0.5617315694
 C          0.3453025852       -3.2378232208        0.1111462417
 C         -0.1542278148       -2.6703030409       -1.0503147086
 C          0.5986482613       -1.7532689487       -1.7664343108
 C          1.8674507369       -1.4096871251       -1.3294830786
 H          2.4839328440       -0.7124798945       -1.8735543682
 H          0.1989020996       -1.2992438580       -2.6600967377
 H         -1.1356598244       -2.9420996637       -1.4043477334
 H         -0.2455562438       -3.9481610850        0.6665355402
 H          2.0334413153       -3.3032868104        1.4601290307
 H          3.2421363058       -0.1834528534        2.0387493523
 H          4.8627501689        1.1971440538       -0.8623078494
 H          3.7540570274        2.8479865560       -2.3504892819
 H          1.3966588457        3.4568490605       -1.9766671416
 H         -0.5612338096        3.3092679912       -0.7903480348
 C         -0.4966247379        3.1805484498        1.3392474111
 C         -0.0964117157        4.6051249828        1.5706437743
 C         -1.5473923319        4.2337344078        1.5116621555
 H         -2.1220733784        4.2434336323        2.4257070915
 H         -2.1131761162        4.5241228953        0.6381062963
 H          0.3279798002        4.8726846571        2.5261337347
 H          0.3210800959        5.1491191820        0.7368116041
 H         -0.3603631785        2.4805506827        2.1526451524
