  62
        -98.93685112
 C          0.3029831611        2.0593455195        0.2482105797
 C          1.0020243213        1.4908872093       -0.8432784800
 C          2.2630480408        0.7841351686       -0.5228830995
 C          2.7428433202        0.8225682181        0.7319525108
 C          3.9918324295        0.1938944673        1.2970341213
 C          5.2562853800        0.2505808867        0.4274376420
 C          5.6539845295       -1.1056483134       -0.1583830480
 H          6.7239389897       -1.0919486439       -0.3772040775
 H          5.4858157387       -1.8742670834        0.5987545217
 C          4.9260268700       -1.4982692027       -1.4432486685
 H          5.2935217108       -0.8870185228       -2.2704270682
 H          5.1832755195       -2.5360482128       -1.6677057285
 C          3.4022960400       -1.3716847919       -1.3913984093
 H          3.0213746993       -1.7211711419       -0.4316716495
 H          2.9773922201       -2.0301595515       -2.1529162496
 C          2.8936696210        0.0503898684       -1.6738830093
 H          3.6959814215        0.6614506881       -2.0975493587
 H          2.1117069114        0.0071187990       -2.4393829197
 H          5.1288001708        0.9841761470       -0.3668059479
 H          6.0772270299        0.5961056562        1.0578638025
 H          4.1677138093        0.7182361370        2.2394025915
 H          3.7686580788       -0.8449363526        1.5550711010
 O          2.0831297600        1.4712462483        1.7347254806
 C          0.8459909104        2.0538309790        1.5356022100
 O          0.3427016102        2.5437810191        2.5657134798
 H         -1.3299535990        0.3648152007       -1.2875521214
 C         -2.1173953594        0.4940854610       -0.5620215418
 C         -2.1507936191        1.6245191409        0.2431521084
 C         -3.1940790195        1.7676803013        1.1507898979
 C         -4.1811163201        0.8039509619        1.2492259372
 C         -4.1333139404       -0.3306359180        0.4602000370
 C         -3.0921411100       -0.4872913084       -0.4478177925
 N         -3.0143915502       -1.6385143383       -1.2517354727
 S         -1.5658565606       -2.4757976791       -1.3318430120
 O         -0.6214199998       -1.7827598595       -2.1648447514
 O         -1.9485200811       -3.8016345288       -1.7701313825
 C         -1.0006511015       -2.5405202498        0.3582804882
 C         -1.5796442025       -3.4633279796        1.2077794278
 C         -1.1979823732       -3.4806169200        2.5390560780
 C         -0.2577976029       -2.5705701506        2.9991009286
 C          0.3139662780       -1.6510535608        2.1336861191
 C         -0.0582985413       -1.6348147204        0.7985495389
 H          0.3712095995       -0.9359966105        0.0980149592
 H          1.0376334382       -0.9351832013        2.4923585996
 H          0.0347082165       -2.5755030910        4.0372342488
 H         -1.6354449040       -4.1973403699        3.2150817876
 H         -2.3004608927       -4.1580307791        0.8080046373
 H         -3.7784077406       -2.2852579279       -1.1140264532
 H         -4.8949785808       -1.0909077076        0.5425714165
 H         -4.9873247304        0.9302700822        1.9553137568
 H         -3.2209342794        2.6379650012        1.7894428680
 C         -1.0775608985        2.6847438903        0.1393997691
 H         -1.1753149586        3.3415552502        1.0148599692
 C         -1.2912277574        3.5217129407       -1.1068172408
 C         -2.3282251368        4.6027171612       -1.0862534412
 C         -0.8727689366        4.9597369704       -1.1066326004
 H         -0.4505560559        5.3718529704       -2.0107310301
 H         -0.4306589768        5.3506142600       -0.2014341201
 H         -2.9116416962        4.7709796717       -1.9783863215
 H         -2.8737084272        4.7589085814       -0.1680085814
 H         -1.1601699472        2.9650938708       -2.0252558509
 O          0.6132171220        1.5397822398       -2.0399512702
