  62
        -98.94298223
 C         -2.6807755449       -1.2002399512        0.1387717019
 C         -2.7007326440       -0.2124017769       -0.8748197331
 C         -3.8950729233        0.6441777665       -0.9067602868
 C         -4.8821279895        0.4344305624       -0.0166839199
 C         -6.1248978001        1.2679047766        0.0978679315
 C         -5.9292413780        2.4213326550        1.0919913837
 C         -4.6495881874        3.2255628115        0.8619488631
 H         -4.6336675583        4.0289391283        1.6016534187
 H         -3.7856518092        2.5875870506        1.0623612084
 C         -4.5198213278        3.8240985859       -0.5456378554
 H         -4.1831287007        4.8590140821       -0.4559214778
 H         -5.4958859040        3.8421462460       -1.0318621597
 C         -3.5163543128        3.1063427987       -1.4502984896
 H         -2.5613004621        3.0013221395       -0.9291007421
 H         -3.3425401753        3.7329251506       -2.3291334742
 C         -3.9439602993        1.7217105108       -1.9530494975
 H         -4.9384357700        1.7823726017       -2.3996797105
 H         -3.2356535081        1.4169495751       -2.7289768287
 H         -5.8953013782        2.0057615778        2.1018020259
 H         -6.7943389641        3.0836834026        1.0265000182
 H         -6.9361700456        0.6292042508        0.4511621608
 H         -6.3852397743        1.6600017594       -0.8832770828
 O         -4.8368871968       -0.5426397753        0.9253949959
 C         -3.7332522746       -1.3718011234        1.0374260527
 O         -3.8067166482       -2.2073946627        1.9614119111
 O         -1.7725873084       -0.0527922224       -1.7096603829
 C         -1.4800664540       -2.1196972501        0.2733593602
 C         -0.2324984270       -1.2988172534        0.4937641022
 C         -0.2173389332       -0.3762952179        1.5372321220
 C          0.9001804993        0.3973567484        1.7816848391
 C          2.0297934190        0.2704435303        0.9913343589
 C          2.0308371435       -0.6536139439       -0.0431767557
 C          0.9063687076       -1.4354397089       -0.2825168531
 H          0.9244249896       -2.1476000433       -1.0926955043
 N          3.1687170612       -0.7830118972       -0.8544151724
 S          4.6788573586       -0.8929440473       -0.1362591579
 O          5.5072936785       -1.5747336804       -1.1066612712
 O          4.5990461705       -1.4945514334        1.1745995784
 C          5.2184804663        0.7984666274       -0.0015059319
 C          5.2169679465        1.5766513591       -1.1424655927
 C          5.6460275260        2.8913729577       -1.0560584146
 C          6.0702091173        3.4019543951        0.1618333127
 C          6.0690534456        2.6067793975        1.2975029257
 C          5.6399611454        1.2909803695        1.2179625937
 H          5.6167985555        0.6377029066        2.0757815120
 H          6.3995955898        3.0053738111        2.2432184417
 H          6.4037659338        4.4256768585        0.2260093213
 H          5.6475751866        3.5131310815       -1.9368859151
 H          4.8823128801        1.1429752929       -2.0700230933
 H          3.0674951389       -1.4498358490       -1.6054114387
 H          2.9034311761        0.8746238199        1.1733547883
 H          0.8929374616        1.1100596036        2.5926088782
 H         -1.1006961974       -0.2752300166        2.1539742582
 H         -1.6549310005       -2.7185865108        1.1791443154
 C         -1.4018179376       -3.0525785401       -0.9168958032
 C         -0.7285218479       -4.3850718151       -0.7864640918
 C         -2.2202985063       -4.3070000812       -0.9068875189
 H         -2.6816424970       -4.6294806399       -1.8282177627
 H         -2.8179596768       -4.5017337622       -0.0282078282
 H         -0.1674009402       -4.7664689423       -1.6266355796
 H         -0.3094942393       -4.6418322999        0.1749902907
 H         -1.3138277704       -2.5221845754       -1.8582765974
