  62
        -98.94413926
 C         -1.7302200042       -1.4401133738        0.2058622586
 C         -2.0194313800       -0.6795906365       -0.9530858973
 C         -2.8905087290        0.4910793897       -0.7587552594
 C         -3.3142456462        0.8087419567        0.4773500989
 C         -4.1649724121        1.9969182739        0.8184805235
 C         -3.3158686300        3.2328163836        1.1475011766
 C         -2.2369832094        3.5423491932        0.1097872679
 H         -1.7303460098        4.4558144336        0.4282781331
 H         -1.4900772405        2.7467536383        0.1168662702
 C         -2.7595534923        3.7189618111       -1.3219664019
 H         -2.2795636280        4.5941287222       -1.7650230584
 H         -3.8331614601        3.9103434996       -1.3078105104
 C         -2.4675726083        2.5358485077       -2.2467465609
 H         -2.6736829414        2.8486142010       -3.2740985790
 H         -1.4044107200        2.2848061687       -2.1936006746
 C         -3.2866421440        1.2651358719       -1.9854948800
 H         -4.3484547042        1.5182472712       -1.9491230765
 H         -3.1253637708        0.5896020586       -2.8308940662
 H         -2.8280198466        3.0742193254        2.1119255267
 H         -3.9839573199        4.0903965543        1.2444456769
 H         -4.8258145969        2.2126316295       -0.0191662723
 H         -4.7709558896        1.7430355950        1.6899266638
 O         -2.9785048821        0.0853109431        1.5748877625
 C         -2.2046357946       -1.0580974821        1.4664459768
 O         -2.0079039171       -1.6423559750        2.5484548124
 H          0.4847796260       -1.2835154299       -1.6329712549
 C          1.1171995208       -1.5848861194       -0.8109060486
 C          0.5822957737       -2.3541730512        0.2118811057
 C          1.4091714397       -2.7242800541        1.2656091658
 C          2.7365109515       -2.3305132000        1.2928988892
 C          3.2569465919       -1.5349288548        0.2875958359
 C          2.4327893488       -1.1527045895       -0.7626468198
 N          2.9180439695       -0.2493215035       -1.7314496742
 S          3.4669420061        1.2033628929       -1.0890070382
 O          3.0688523312        2.2283352740       -2.0287402131
 O          4.8842020603        1.1017024240       -0.8426754840
 C          2.6164923118        1.3938453456        0.4729508016
 C          3.3601655163        1.5133236658        1.6292523997
 C          2.7041240487        1.5972495722        2.8467093144
 C          1.3202248123        1.5414465492        2.8883939111
 C          0.5863217333        1.4240581649        1.7183729810
 C          1.2356004838        1.3585890674        0.4966492353
 H          0.6818658763        1.2682190048       -0.4256926459
 H         -0.4901536484        1.3627880868        1.7585703772
 H          0.8037102915        1.5826668652        3.8342857059
 H          3.2718371848        1.6922668029        3.7581130464
 H          4.4350357923        1.5289114964        1.5511735735
 H          2.2430092317       -0.0673131556       -2.4618586469
 H          4.2771690066       -1.1861089418        0.3081946665
 H          3.3674068105       -2.6290354153        2.1157383619
 H          0.9994382951       -3.3059218194        2.0779904492
 C         -0.8851429195       -2.7080466697        0.1971518010
 H         -1.1153055839       -3.2238427540        1.1384973164
 C         -1.2133556152       -3.6407346779       -0.9521363576
 C         -0.8677267409       -5.0927526398       -0.8271632299
 C         -2.3010104459       -4.6565221136       -0.7840470369
 H         -2.9356178454       -4.8758483351       -1.6295498622
 H         -2.8150948396       -4.6863535729        0.1658231097
 H         -0.4110163409       -5.4213290761        0.0940905936
 H         -0.5147982497       -5.6149512658       -1.7031486107
 H         -1.1111934013       -3.1808385843       -1.9259954337
 O         -1.5889435835       -0.9398358485       -2.1101189207
