  62
        -98.94447855
 C          2.6571056351        1.2891778042        0.1166699858
 C          2.5603208580        0.2901205730       -0.8821972367
 C          3.5337085804       -0.8083908205       -0.7860423170
 C          4.4480059177       -0.8001513578        0.2005754540
 C          5.4587106165       -1.8818133120        0.4458288377
 C          4.9149583451       -2.9374398087        1.4187026976
 C          3.5191036754       -3.4480674231        1.0602978292
 H          3.2523116554       -4.2102016434        1.7956864754
 H          2.7987947269       -2.6334423813        1.1690197970
 C          3.4022987766       -4.0389781271       -0.3516454906
 H          4.3938496276       -4.2830654771       -0.7348957140
 H          2.8370263250       -4.9715818772       -0.2949796932
 C          2.6777175607       -3.1424745711       -1.3578688585
 H          1.7185985333       -2.8213107863       -0.9410804604
 H          2.4600686199       -3.7386092114       -2.2485014588
 C          3.4480172700       -1.8978736922       -1.8175111997
 H          4.4443117915       -2.1872155614       -2.1580965016
 H          2.9060094369       -1.4676675496       -2.6649321785
 H          5.6140841583       -3.7751078040        1.4454089806
 H          4.8714482348       -2.4980354018        2.4178080671
 H          5.7229212957       -2.3471186201       -0.5016459821
 H          6.3508721392       -1.4267595888        0.8790780171
 O          4.5228592421        0.1863942665        1.1293601980
 C          3.6216059639        1.2361379369        1.1263765151
 O          3.7828598294        2.0526237971        2.0549375133
 H         -0.4002778674        1.7330343776       -1.4712451055
 C         -0.6153228073        1.5623919001       -0.4285111262
 C          0.3242018548        1.8982820854        0.5329768375
 C          0.0348872598        1.6343681787        1.8691521720
 C         -1.1662434987        1.0534206966        2.2293392300
 C         -2.0992972574        0.7120446454        1.2650416583
 C         -1.8121747273        0.9549342567       -0.0707189280
 N         -2.7457539192        0.5960063406       -1.0584805794
 S         -3.4090268629       -0.9453315392       -0.9915444611
 O         -2.5268119958       -1.8848114901       -0.3387804669
 O         -3.7890345049       -1.2547336496       -2.3529135932
 C         -4.8871755069       -0.7187548340       -0.0226142353
 C         -5.1176416454       -1.5152677818        1.0817482167
 C         -6.2795912707       -1.3266559429        1.8141478863
 C         -7.1863427122       -0.3506774013        1.4304855785
 C         -6.9417003035        0.4391784445        0.3168696038
 C         -5.7828263500        0.2548402152       -0.4199366922
 H         -5.5568465806        0.8446669754       -1.2924087177
 H         -7.6491449009        1.1972062415        0.0216152630
 H         -8.0889915723       -0.2050128994        2.0026021189
 H         -6.4712744631       -1.9403974212        2.6796819489
 H         -4.3815214537       -2.2580935276        1.3457055195
 H         -2.4325484707        0.8033820532       -1.9963801881
 H         -3.0321519764        0.2456750402        1.5369709444
 H         -1.3780601852        0.8589835710        3.2698445573
 H          0.7746129787        1.8777124256        2.6195813594
 C          1.6797639877        2.4540555347        0.1705195216
 H          2.0188180526        3.0917222528        0.9974460299
 C          1.6926115386        3.2676817230       -1.1063946373
 C          1.0669979420        4.6291765338       -1.1116314435
 C          2.5570561699        4.4884971514       -1.1848103516
 H          3.0520568834        4.7088159572       -2.1187799432
 H          3.1397352605        4.7445924542       -0.3119495891
 H          0.6363713242        4.9813525524       -0.1865677738
 H          0.5371176760        4.9508079324       -1.9951454563
 H          1.6094084161        2.6660100021       -2.0026960904
 O          1.7153213835        0.3050766013       -1.8166216360
