  62
        -98.94431525
 C          1.1451575334        1.2466541547        0.8386710961
 C          2.3120276372        1.3783131611        0.0472618942
 C          3.2726933254        0.2669976571        0.1344063575
 C          2.9839030196       -0.8037600705        0.8954072117
 C          3.8532900961       -2.0209778793        1.0236942358
 C          3.5131329178       -3.0815579234       -0.0330724189
 C          3.3882284997       -2.5292282408       -1.4523204270
 H          3.1518810539       -3.3693770910       -2.1091639774
 H          2.5445429658       -1.8363840902       -1.4929383867
 C          4.6480644106       -1.8206752880       -1.9682363384
 H          5.5085723402       -2.1057697268       -1.3615959496
 H          4.8466614415       -2.1543982173       -2.9889481780
 C          4.5429459994       -0.2956559099       -2.0093681327
 H          3.6341084425       -0.0025778857       -2.5408064574
 H          5.3933002362        0.0891014642       -2.5787904275
 C          4.5503464814        0.4052074178       -0.6454339752
 H          5.4003446680        0.0544804760       -0.0564850819
 H          4.6758945876        1.4768692560       -0.8253849617
 H          4.2862410235       -3.8518193146       -0.0081500726
 H          2.5628251875       -3.5447246727        0.2356932012
 H          4.8955617574       -1.7218647956        0.9267483832
 H          3.7004893246       -2.4472042560        2.0165065325
 O          1.8386822166       -0.9087760107        1.6176465724
 C          0.9013823391        0.1093289779        1.6146163810
 O         -0.0902186759       -0.1057408973        2.3394014157
 H         -2.0956750535        0.7509850668        0.5446270726
 C         -1.8280866861        1.2267701112       -0.3874513589
 C         -0.7573694992        2.1116823563       -0.4187261651
 C         -0.4255784778        2.7228009371       -1.6223096545
 C         -1.1504309522        2.4422328377       -2.7670048482
 C         -2.2084312396        1.5516527515       -2.7372570381
 C         -2.5499422296        0.9382522511       -1.5357490676
 N         -3.6190304498        0.0407678689       -1.4808491582
 S         -3.9695475281       -0.9253325360       -0.1803166001
 O         -4.9616683099       -1.8470148709       -0.6953538898
 O         -4.3924299967       -0.1219905996        0.9406041297
 C         -2.4998601203       -1.8445119005        0.2404915529
 C         -2.3428390043       -2.2300024033        1.5556459130
 C         -1.2516898555       -3.0071855584        1.9045165273
 C         -0.3381562211       -3.3831326098        0.9343645857
 C         -0.5037560942       -2.9823753146       -0.3817794603
 C         -1.5971903580       -2.2093223796       -0.7375494563
 H         -1.7430555818       -1.8846952964       -1.7553525350
 H          0.2169182569       -3.2667138089       -1.1327145329
 H          0.5116893104       -3.9868315774        1.2124870794
 H         -1.1120812741       -3.3044250914        2.9312327424
 H         -3.0663240709       -1.9003038660        2.2840251331
 H         -4.0053806506       -0.2752439737       -2.3556910242
 H         -2.7687964184        1.3308334399       -3.6325807750
 H         -0.8836942890        2.9192334868       -3.6979727235
 H          0.4175629047        3.3925146161       -1.6632997823
 C          0.0474325710        2.3016308216        0.8437402490
 H         -0.6037838513        2.0530446976        1.6928642446
 C          0.5644648648        3.7117141461        1.0313260842
 C         -0.4071305788        4.7930545443        1.3936599221
 C          0.5836002501        4.3049283154        2.4065116664
 H          1.4056047220        4.9503683203        2.6777258343
 H          0.2213483911        3.6944496470        3.2212951092
 H         -1.4419948270        4.5109034891        1.5202932073
 H         -0.2680770487        5.7757545742        0.9699234805
 H          1.3843735997        3.9675056422        0.3738976788
 O          2.5640346442        2.3657803527       -0.6909925652
