  62
        -98.94466034
 C          0.8754239420        1.3347024257        0.3331403793
 C          1.2700172652        0.5362830145       -0.7687197975
 C          2.2990188835       -0.4794950357       -0.4864293742
 C          2.7593786732       -0.6331061923        0.7673041067
 C          3.8540696573       -1.5766478006        1.1743446475
 C          5.2271553225       -0.8937470589        1.0991742971
 C          5.4842938658       -0.1650609323       -0.2198706485
 H          4.7948014771        0.6781421942       -0.3029256983
 H          6.4936481056        0.2491699367       -0.1713208354
 C          5.3544711579       -1.0476189530       -1.4692680311
 H          5.4137189160       -2.0999157351       -1.1888618650
 H          6.1968137128       -0.8418628445       -2.1330926087
 C          4.0802846888       -0.8116303784       -2.2828662938
 H          3.9709730704        0.2554834421       -2.4926543313
 H          4.1891010583       -1.3231743961       -3.2431624490
 C          2.7787427968       -1.3112425893       -1.6427506980
 H          1.9918242299       -1.2547536752       -2.4019266332
 H          2.8933555938       -2.3568281777       -1.3476398136
 H          5.9981294508       -1.6506345307        1.2542932594
 H          5.2966793474       -0.1657980995        1.9105702867
 H          3.6741610930       -1.8915152461        2.2035970165
 H          3.8395392885       -2.4504891035        0.5252724851
 O          2.3047447329        0.1013929464        1.8128089126
 C          1.3754506062        1.1069998169        1.6193540268
 O          1.0759165484        1.7296943894        2.6573843356
 H         -1.4113299612        0.4747600314       -1.0719664360
 C         -2.0447821315        0.9978426941       -0.3721959678
 C         -1.5389902946        2.0514670731        0.3762739814
 C         -2.3873524322        2.7208724154        1.2514813945
 C         -3.7141401969        2.3508844447        1.3702562891
 C         -4.2141359386        1.2949452934        0.6308054803
 C         -3.3726847032        0.6140449029       -0.2420108878
 N         -3.8569349911       -0.4675221234       -0.9915500529
 S         -2.8812584306       -1.7932559205       -1.2662094407
 O         -2.0177580432       -1.5676234462       -2.3953101958
 O         -3.8161845772       -2.8916106107       -1.4112483094
 C         -1.9262868551       -2.0338556759        0.2225062162
 C         -2.5664985119       -1.9911774934        1.4456211268
 C         -1.8324976023       -2.2298741216        2.5954977731
 C         -0.4817154984       -2.5280239028        2.5035153419
 C          0.1423860324       -2.5821107501        1.2680715994
 C         -0.5824254397       -2.3228479216        0.1156714847
 H         -0.1275459449       -2.3305943023       -0.8622844776
 H          1.1915195027       -2.8189385981        1.1960020333
 H          0.0891010317       -2.7187147078        3.3985761104
 H         -2.3146715791       -2.1869658368        3.5587168395
 H         -3.6214557507       -1.7758859052        1.4908688328
 H         -4.8061667388       -0.7409174224       -0.7826502202
 H         -5.2474892142        0.9975885075        0.7235265431
 H         -4.3625098534        2.8817404819        2.0501459349
 H         -1.9957919595        3.5313430192        1.8477378803
 C         -0.1025527296        2.4931879329        0.2300986023
 H          0.1271998911        3.1477003580        1.0827483280
 C          0.0510441646        3.3042482220       -1.0433455305
 C         -0.3566285393        4.7454368522       -1.0458785276
 C          1.0946536769        4.3763472597       -1.1112408780
 H          1.6264199806        4.5181364638       -2.0401220033
 H          1.7019532430        4.5384669676       -0.2322274525
 H         -0.8262722465        5.1442115450       -1.9318882770
 H         -0.7296806576        5.1646486693       -0.1238886715
 H         -0.1293548299        2.7273630055       -1.9410219253
 O          0.8142376033        0.6497728685       -1.9371378918
