  62
        -98.93353454
 C          2.5197996926        0.9821577091        0.2693976178
 C          2.7069459117       -0.1329194463        1.1164114968
 C          3.4635369346       -1.2743950059        0.5664230171
 C          3.9061810341       -1.2030744377       -0.7030458721
 C          4.6606346097       -2.2436366309       -1.4875381849
 C          3.7611586899       -3.3944963650       -1.9658191376
 C          2.7906128966       -3.9292922017       -0.9162133354
 H          2.1515801540       -3.1139595291       -0.5720577106
 H          2.1446005380       -4.6630337944       -1.4053902498
 C          3.4422305054       -4.6084442825        0.2861497117
 H          2.6382422987       -5.0246096877        0.8985647723
 H          4.0576609070       -5.4404353264       -0.0629967466
 C          4.3009680951       -3.7099141814        1.1790663020
 H          4.4826477630       -4.2549073668        2.1100464297
 H          5.2754695330       -3.5283338391        0.7339465573
 C          3.6474763825       -2.3880314476        1.5696620816
 H          4.2200486477       -1.9469049304        2.3945863568
 H          2.6535478024       -2.5880974897        1.9860150176
 H          3.1709982004       -3.0322653973       -2.8112140910
 H          4.3992019739       -4.2048740147       -2.3223228769
 H          5.0713838141       -1.7369552032       -2.3636179079
 H          5.4941629744       -2.6207279737       -0.9025151751
 O          3.6709353759       -0.1186296830       -1.4959914001
 C          2.9811857309        0.9919853213       -1.0465391475
 O          2.8529667415        1.8956991036       -1.8933981879
 O          2.2541173142       -0.1840854278        2.2935297106
 C          1.7629568311        2.1871103066        0.7998842985
 C          0.4673547263        2.3386522985        0.0406259584
 C          0.1331008586        3.4642058615       -0.6988153372
 C         -1.0699791825        3.5184570451       -1.3825325604
 C         -1.9613229469        2.4631444329       -1.3406304318
 C         -1.6428620423        1.3360473234       -0.5924978201
 C         -0.4389138744        1.2853884265        0.0933958055
 H         -0.1864772736        0.4091763155        0.6780767152
 N         -2.5370855006        0.2487089622       -0.5490806053
 S         -4.1746454974        0.6159706679       -0.3420313259
 O         -4.7260952454        0.9741710492       -1.6248091556
 O         -4.3348115205        1.5961790230        0.7087231397
 C         -4.8248372414       -0.9609544731        0.1720170055
 C         -5.0440746456       -1.1980303713        1.5156007906
 C         -5.5363973173       -2.4334349258        1.9063744098
 C         -5.7959194114       -3.4059771819        0.9525061726
 C         -5.5696297382       -3.1531961056       -0.3925303594
 C         -5.0795942454       -1.9196178178       -0.7904321611
 H         -4.8989273087       -1.6748279589       -1.8240726359
 H         -5.7748086862       -3.9114540336       -1.1308805178
 H         -6.1798316413       -4.3660713667        1.2593303910
 H         -5.7158165482       -2.6316239761        2.9508540419
 H         -4.8358933024       -0.4096986533        2.2212976652
 H         -2.2402695162       -0.4555934894        0.1129314386
 H         -2.9010441964        2.4982699464       -1.8678577051
 H         -1.3166362411        4.3972464502       -1.9593764305
 H          0.8152864335        4.2964483026       -0.7487776093
 H          1.5153270075        1.9382375394        1.8423083842
 C          2.6339970906        3.4241976712        0.7897604246
 C          2.3178534888        4.5659067425        1.7075805348
 C          3.5138178208        3.7022509598        1.9702239762
 H          4.4967076179        4.1129530074        1.7946089941
 H          3.4727012242        3.0072452108        2.7962447491
 H          2.4802382008        5.5726792606        1.3538408956
 H          1.4624223663        4.4605283267        2.3576759701
 H          3.0319804935        3.6506767417       -0.1924977173
