  62
        -98.94484840
 C          1.9097772982        0.3151879611        0.0548694557
 C          2.9775109082        0.5063483000        0.9691739390
 C          4.1901761525       -0.2843051559        0.7258191446
 C          4.2110000535       -1.1547047779       -0.2999273456
 C          5.3936647440       -1.9915186715       -0.6909097101
 C          6.2691020905       -1.2683806923       -1.7240830563
 C          6.6172167104        0.1699504763       -1.3406073327
 H          7.2625309483        0.5685019414       -2.1264501717
 H          5.7040710337        0.7694327685       -1.3397456023
 C          7.3177911092        0.3131209619        0.0177749064
 H          8.1574852421        1.0025662242       -0.0924894264
 H          7.7278707352       -0.6491600133        0.3265108738
 C          6.4304965593        0.8673789416        1.1339985084
 H          7.0724335633        1.1310760383        1.9787212644
 H          5.9445093625        1.7851195272        0.7936247583
 C          5.3489545734       -0.0838494779        1.6615599070
 H          5.7996526336       -1.0422074299        1.9274853131
 H          4.9283113910        0.3609607753        2.5680797691
 H          5.7352915535       -1.2491578913       -2.6770858700
 H          7.1869881536       -1.8430189498       -1.8608259181
 H          5.9779764366       -2.2228883961        0.1976063168
 H          5.0271701672       -2.9229107947       -1.1260255507
 O          3.1575546433       -1.3375131274       -1.1342158363
 C          1.9853905161       -0.6086878057       -0.9875154382
 O          1.1175137048       -0.8780480061       -1.8402852201
 H         -1.2324873159       -0.3082527410       -1.1161771899
 C         -1.3122225420       -0.4528750334       -0.0502884034
 C         -0.4335724069        0.2015162615        0.8002042072
 C         -0.5379619471       -0.0270566717        2.1688957539
 C         -1.4971257895       -0.8870013748        2.6721773040
 C         -2.3684894847       -1.5429993115        1.8199744355
 C         -2.2638157504       -1.3291404164        0.4524824821
 N         -3.1530224075       -1.9939279105       -0.4218362238
 S         -4.7617020620       -1.5486088193       -0.2758155853
 O         -5.2754136513       -2.0503269649        0.9732771598
 O         -5.4148921622       -2.0236471677       -1.4742559185
 C         -4.7199957385        0.2338629155       -0.2504232149
 C         -4.7174675527        0.9115571243       -1.4531831188
 C         -4.5949393309        2.2913661579       -1.4447002515
 C         -4.4626536797        2.9646303704       -0.2398900917
 C         -4.4637850075        2.2688277435        0.9589435828
 C         -4.5931739442        0.8893107910        0.9577425629
 H         -4.6030460025        0.3130801237        1.8681424973
 H         -4.3605703667        2.7947362415        1.8943940587
 H         -4.3579175868        4.0381332625       -0.2358241806
 H         -4.5984343130        2.8357795353       -2.3755478977
 H         -4.8243155761        0.3499897664       -2.3676166639
 H         -2.8687210883       -1.9246569694       -1.3891794001
 H         -3.1296136465       -2.2104366902        2.1909376120
 H         -1.5668282986       -1.0506300255        3.7369241431
 H          0.1514564053        0.4726646154        2.8346814713
 C          0.6404424969        1.1219634409        0.2766292018
 H          0.8903443591        1.8347497022        1.0736535185
 C          0.2131897114        1.8958673510       -0.9536993616
 C         -0.8589702587        2.9346432783       -0.8201685642
 C          0.5599210677        3.3488957676       -1.0659317958
 H          0.8235408273        3.7408647477       -2.0368762990
 H          1.1105848207        3.7963380648       -0.2515794751
 H         -1.5748792367        3.0420867372       -1.6201511434
 H         -1.2737866246        3.0948273136        0.1633053053
 H          0.2404381621        1.3106293992       -1.8642456170
 O          2.9176134368        1.3045498027        1.9416971409
