  62
        -98.94302065
 C         -2.3381052961       -0.8918972567        0.4450935073
 C         -2.5279705070        0.1516551283       -0.4930450239
 C         -3.5229725302        1.1688675277       -0.1259840293
 C         -4.1576152040        1.0991095989        1.0573967423
 C         -5.1716093711        2.0785612506        1.5825644593
 C         -6.6007922129        1.8258933059        1.0831125187
 C         -6.8495256738        2.1794560408       -0.3837118374
 H         -7.9300769068        2.1604684716       -0.5389640028
 H         -6.5116311110        3.1987817513       -0.5731714438
 C         -6.1906234551        1.2217768969       -1.3863011014
 H         -6.9100884788        0.9576565384       -2.1646800521
 H         -5.9152306700        0.2947708050       -0.8780744845
 C         -4.9548080616        1.7878895948       -2.0858094140
 H         -4.5484523695        1.0143888256       -2.7426150089
 H         -5.2427016122        2.6391131344       -2.7069079264
 C         -3.8386348184        2.2343372114       -1.1325241981
 H         -2.9362270272        2.4152692087       -1.7217186726
 H         -4.1200409236        3.1601737660       -0.6314385107
 H         -7.2721182341        2.4289862657        1.6987414989
 H         -6.8491893437        0.7755115962        1.2517561649
 H         -5.1645944148        1.9784123975        2.6700440461
 H         -4.8689537774        3.0939300243        1.3251029335
 O         -3.9229235796        0.1011094287        1.9490782540
 C         -3.0374704812       -0.9205342762        1.6574045269
 O         -2.9561236197       -1.7905199861        2.5472786145
 H          0.1482981966       -0.2206136212       -1.0452689847
 C          0.6891508233       -0.7116730484       -0.2496547740
 C          0.0445604030       -1.6737941473        0.5145016658
 C          0.7504988688       -2.2892328514        1.5415478615
 C          2.0666114498       -1.9453979774        1.7955793760
 C          2.7034717357       -0.9808255760        1.0354472082
 C          2.0067594224       -0.3593689035        0.0073490726
 N          2.6314811157        0.6418881978       -0.7550078281
 S          4.1592286621        0.3462426561       -1.3798934161
 O          4.2813741321        1.2275089032       -2.5204695521
 O          4.3681613828       -1.0612263983       -1.6302242742
 C          5.2595987122        0.9067439246       -0.0965742973
 C          6.2383424212        0.0625437434        0.3900660511
 C          7.0900851480        0.5249429495        1.3813238193
 C          6.9494372007        1.8167036838        1.8647040398
 C          5.9630701769        2.6531085032        1.3632521653
 C          5.1091323352        2.1972983761        0.3717550861
 H          4.3320904864        2.8156647968       -0.0460257861
 H          5.8566913707        3.6571116420        1.7415081652
 H          7.6122384037        2.1741470016        2.6368840947
 H          7.8577730370       -0.1233407160        1.7722288351
 H          6.3065373121       -0.9357850556       -0.0120216618
 H          2.0260344532        1.0500440973       -1.4527755598
 H          3.7279585592       -0.7084573040        1.2299249231
 H          2.6024318359       -2.4317022300        2.5964514812
 H          0.2560113654       -3.0337477665        2.1485435269
 C         -1.3868858727       -2.0584673603        0.2232577366
 H         -1.6816752725       -2.8203742733        0.9571485247
 C         -1.5093197163       -2.6615643322       -1.1635103683
 C         -1.0596632411       -4.0729877222       -1.3840841421
 C         -2.5206231359       -3.7386674980       -1.4084789914
 H         -3.0399006257       -3.7523373208       -2.3550449310
 H         -3.1292471077       -4.0518548140       -0.5723835520
 H         -0.5706988160       -4.3179781032       -2.3145846813
 H         -0.6783681105       -4.6153519374       -0.5321019302
 H         -1.3408416376       -1.9496020914       -1.9607190512
 O         -1.9110952874        0.2585636502       -1.5878553103
