  62
        -98.93714796
 C         -1.3922049169       -1.4684075547       -0.2010674478
 C         -2.7292503915       -1.4435309920        0.2701134031
 C         -3.5447304295       -0.2566378633       -0.0523797099
 C         -2.9754902157        0.7456861051       -0.7467514050
 C         -3.5765369648        2.0678999292       -1.1437884483
 C         -3.6631053254        3.0556438020        0.0304559185
 C         -4.1766117062        2.4555277897        1.3364437716
 H         -3.5284283578        1.6281343235        1.6308563183
 H         -4.0940985606        3.2233958479        2.1102600981
 C         -5.6266917078        1.9781456034        1.3074167537
 H         -5.8864830317        1.6686242575        2.3230982015
 H         -6.2751525982        2.8159377531        1.0411738137
 C         -5.9294326728        0.8105760391        0.3653758093
 H         -6.0036976709        1.1456355624       -0.6658118951
 H         -6.9159090242        0.4223390573        0.6356764942
 C         -4.9575306490       -0.3606531705        0.4696548074
 H         -5.3983614908       -1.2251085077       -0.0420685149
 H         -4.8716880253       -0.6634368140        1.5195396725
 H         -4.3027200883        3.8888142317       -0.2658676261
 H         -2.6615066858        3.4488470819        0.2194420898
 H         -2.9232118741        2.4909497137       -1.9098674775
 H         -4.5537913687        1.9151866762       -1.5920688368
 O         -1.6829375397        0.6880801758       -1.1683163341
 C         -0.8586090941       -0.3964203384       -0.9210228815
 O          0.2822438269       -0.2690022247       -1.3999625403
 O         -3.2328831069       -2.3800064310        0.9476623119
 C         -0.5402096404       -2.6633646459        0.1974079487
 C          0.6933655135       -2.1449293808        0.8878915105
 C          0.6481578473       -1.8291215747        2.2418245649
 C          1.7346833885       -1.2449316384        2.8670126728
 C          2.8721051020       -0.9287517697        2.1445323822
 C          2.9167457196       -1.2235786657        0.7881641040
 C          1.8499734220       -1.8661923798        0.1761863161
 H          1.8993631245       -2.1008900648       -0.8751922839
 N          4.0442848197       -0.8450142667        0.0289918722
 S          4.4313101830        0.7865635895        0.0274057610
 O          5.3451297888        0.9563218772       -1.0806333602
 O          4.9479992343        1.1386623337        1.3278857733
 C          2.9204396424        1.6829337000       -0.2808987800
 C          2.1031901587        2.0191516460        0.7789311389
 C          0.9166952011        2.6859300597        0.5221379663
 C          0.5732545600        3.0095397287       -0.7803117159
 C          1.4067083880        2.6681859167       -1.8324999719
 C          2.5889510440        1.9926098311       -1.5834883349
 H          3.2621131369        1.7060566877       -2.3756145239
 H          1.1311400231        2.9130480382       -2.8458255462
 H         -0.3543913836        3.5236829538       -0.9787899985
 H          0.2611515902        2.9436348343        1.3396072478
 H          2.4049384311        1.7594322505        1.7804355713
 H          3.9863344681       -1.1631338267       -0.9287521178
 H          3.7150195867       -0.4378984035        2.6040012120
 H          1.6915496589       -1.0181771760        3.9216785433
 H         -0.2553787575       -2.0367602233        2.7981803179
 H         -1.1537063539       -3.2002815262        0.9379828480
 C         -0.2335044268       -3.6573742347       -0.9116212698
 C         -1.3089624474       -4.0686393598       -1.8716730554
 C         -0.1274051355       -3.2878764031       -2.3592938109
 H          0.6108867724       -3.8013502315       -2.9585733562
 H         -0.2683963106       -2.2553200109       -2.6351610101
 H         -1.3916924976       -5.1097304776       -2.1449528071
 H         -2.2582646353       -3.5584671935       -1.7948175260
 H          0.4319478849       -4.4434211767       -0.5662193658
