  62
        -98.94337200
 C         -1.2245997829       -0.6593045990        0.5958464101
 C         -1.9418180648       -0.4965334902       -0.6149768913
 C         -2.9363714211        0.5856098212       -0.6238779941
 C         -3.0428933057        1.4116324004        0.4313438444
 C         -3.9912093143        2.5729021715        0.5579078868
 C         -5.3977259184        2.1809441195        1.0316360609
 C         -6.2528366329        1.4487154632       -0.0034571460
 H         -7.2743356023        1.4299740733        0.3814876797
 H         -6.2649803761        2.0207522470       -0.9317161352
 C         -5.8067732686        0.0080988051       -0.2900776998
 H         -5.1467859787       -0.3344111130        0.5102474312
 H         -6.6783855723       -0.6500682650       -0.2894688929
 C         -5.0973054622       -0.1808167240       -1.6310248185
 H         -5.7910908112        0.0357687723       -2.4462117608
 H         -4.7959926777       -1.2280794254       -1.7146682365
 C         -3.8457563666        0.6888347825       -1.8108711115
 H         -3.2946702236        0.3262012187       -2.6822524719
 H         -4.1290099306        1.7268508564       -1.9850176749
 H         -5.3044381979        1.5653032699        1.9293716816
 H         -5.9141962292        3.1016691355        1.3126784014
 H         -3.5542437363        3.2514133301        1.2940855017
 H         -4.0582942957        3.0963194428       -0.3964648880
 O         -2.2538718336        1.2925240586        1.5326896849
 C         -1.3380728877        0.2587627591        1.6424806566
 O         -0.6810581623        0.2706107074        2.7039636550
 H          1.0056344226        0.3834299093       -0.2218538174
 C          1.3246697693       -0.5049309158       -0.7457078570
 C          0.7724284301       -1.7322683207       -0.4031521020
 C          1.1591945989       -2.8556508388       -1.1212043964
 C          2.0721078882       -2.7402178006       -2.1559614082
 C          2.6356933896       -1.5192827148       -2.4786803838
 C          2.2519135209       -0.3883251587       -1.7664313570
 N          2.7952586201        0.8739677846       -2.0504109704
 S          3.0510292581        1.9529551897       -0.8005069625
 O          1.8085043385        2.5626216058       -0.3950970653
 O          4.0566890848        2.8593666460       -1.3136508143
 C          3.7430980005        0.9710827770        0.5195825880
 C          4.9971263370        0.4276622906        0.3146660520
 C          5.5504426940       -0.3774451520        1.2960213044
 C          4.8413363694       -0.6300007342        2.4608667776
 C          3.5875644417       -0.0724580496        2.6549149395
 C          3.0300755861        0.7374040826        1.6773539853
 H          2.0530837489        1.1781728203        1.8049986281
 H          3.0286886562       -0.2646155007        3.5572226556
 H          5.2673388955       -1.2623524538        3.2236553855
 H          6.5280314022       -0.8074936667        1.1498826868
 H          5.5216092347        0.6553704207       -0.5989954226
 H          3.5492513526        0.8772815952       -2.7210381152
 H          3.3526454013       -1.4353229629       -3.2807493462
 H          2.3560526641       -3.6185373956       -2.7154148217
 H          0.7321644101       -3.8169166050       -0.8878319758
 C         -0.1833159456       -1.7515217710        0.7651479986
 H          0.3942479370       -1.4475454737        1.6548280789
 C         -0.7511457251       -3.1294025744        1.0728137997
 C         -2.1314976715       -3.2922120102        1.6347820806
 C         -1.8286209536       -3.7604959800        0.2448663509
 H         -1.7781693309       -4.8246090401        0.0650176447
 H         -2.2129548311       -3.1923841319       -0.5866398265
 H         -2.2875328896       -4.0295238395        2.4081588781
 H         -2.7310053461       -2.4008340481        1.7541049307
 H          0.0058115860       -3.7970487323        1.4726112904
 O         -1.7734602346       -1.2070418960       -1.6390065559
