  62
        -98.94486922
 C          1.9488731711        0.5144424190       -0.6213262209
 C          3.0176566812        1.3125549498       -0.1461524725
 C          4.3557894912        0.7226326096       -0.2579073215
 C          4.5025830911       -0.4991909314       -0.8020012692
 C          5.8043707411       -1.2262310118       -1.0050132779
 C          6.2939044511       -1.9884870496        0.2340889934
 C          6.8305627712       -1.1127620275        1.3670912018
 H          7.3358361012       -1.7758214962        2.0721591630
 H          7.5803991412       -0.4274348382        0.9706871105
 C          5.7524152313       -0.3209264561        2.1200917004
 H          5.9166274513       -0.4144390341        3.1959637605
 H          4.7707289612       -0.7509398164        1.9078443912
 C          5.7200065113        1.1723405933        1.7945293576
 H          4.8988353113        1.6275377444        2.3539225768
 H          6.6508588913        1.6395390739        2.1234423867
 C          5.5130388912        1.4895526506        0.3076758070
 H          5.2847162812        2.5538856204        0.2124222151
 H          6.4224483112        1.2752135795       -0.2530819926
 H          5.4756157811       -2.6082783288        0.6080934246
 H          7.0949286811       -2.6567172402       -0.0904465454
 H          6.5717195711       -0.5217278925       -1.3271801293
 H          5.6349863210       -1.9472480633       -1.8076593666
 O          3.4509126510       -1.2282737622       -1.2617545478
 C          2.1496110111       -0.7531841120       -1.1673365686
 O          1.2869457310       -1.5390585828       -1.6029184071
 O          2.8597319112        2.4609938308        0.3474272954
 C          0.5343549811        1.0596002492       -0.5230874519
 C         -0.2944137388        0.1491940908        0.3478758299
 C          0.1014101713       -0.0398496667        1.6707686602
 C         -0.5980978187       -0.8898553852        2.5036457218
 C         -1.7150607588       -1.5628289260        2.0385258631
 C         -2.1201734088       -1.3812629184        0.7221953128
 C         -1.4141440389       -0.5235987000       -0.1128590688
 H         -1.7390874989       -0.4202067919       -1.1337977290
 N         -3.2344343589       -2.0737472793        0.2234266142
 S         -4.3829671389       -1.3173778110       -0.7235772471
 O         -5.4888940690       -2.2485783210       -0.7587860754
 O         -3.8240284990       -0.9402397134       -1.9959202079
 C         -4.8462004888        0.1312230007        0.2079981802
 C         -5.8169989388        0.0022029626        1.1825520705
 C         -6.1449123187        1.1053696040        1.9534404685
 C         -5.4926969787        2.3112378336        1.7441201362
 C         -4.5200150987        2.4238044717        0.7628719759
 C         -4.1902698888        1.3248643703       -0.0150499821
 H         -3.4433769989        1.3771062388       -0.7896017622
 H         -4.0148506887        3.3624051614        0.5994039042
 H         -5.7454442786        3.1695533247        2.3464260546
 H         -6.9046260387        1.0221258154        2.7138325787
 H         -6.3062451488       -0.9506138872        1.3043955423
 H         -3.6735595089       -2.6916873881        0.8899325954
 H         -2.2598355688       -2.2343741248        2.6846568244
 H         -0.2751668187       -1.0301314833        3.5241695121
 H          0.9762202313        0.4841378339        2.0310933792
 H          0.6351933712        2.0278330302       -0.0109764437
 C         -0.0463367889        1.2988624667       -1.8996326523
 C         -1.1065040289        2.3401985863       -2.0928036841
 C          0.2791816511        2.5754252953       -2.6131756846
 H          0.4454494010        2.5413115234       -3.6794277646
 H          0.9057126211        3.2872329363       -2.0957354160
 H         -1.8972887890        2.1446819251       -2.8022157137
 H         -1.4151256088        2.9019369680       -1.2238020651
 H         -0.1011099990        0.3971615556       -2.4996717806
