  62
        -98.93916063
 C         -2.3007162999       -1.2683565363       -0.0688126282
 C         -3.0204392314       -0.4333304280        0.8137455412
 C         -3.5894247304        0.8062351792        0.2508182587
 C         -3.3735593928        1.0822808323       -1.0490734453
 C         -3.7917608634        2.3055919615       -1.8200203422
 C         -2.9024905257        3.5215929404       -1.5117619708
 C         -2.5870229519        3.7303754984       -0.0325824984
 H         -2.0920895618        2.8374630955        0.3561735512
 H         -1.8649679369        4.5485252238        0.0401722434
 C         -3.7844270949        4.0802498363        0.8485393710
 H         -3.3997140896        4.2764416235        1.8527432890
 H         -4.2384625318        5.0031863372        0.4812009581
 C         -4.8749484941        3.0122128581        0.9560112774
 H         -5.4970791705        2.9980892367        0.0654024007
 H         -5.5272458474        3.2975782523        1.7864839521
 C         -4.3667854211        1.6079179469        1.2674839562
 H         -3.7364675642        1.6470725647        2.1634408054
 H         -5.2235633838        0.9819483128        1.5452775247
 H         -1.9513004783        3.3853139826       -2.0331869479
 H         -3.3846883114        4.4144134332       -1.9133109041
 H         -3.6878101088        2.0602565524       -2.8791329423
 H         -4.8371682968        2.5299335306       -1.6310909527
 O         -2.6584084849        0.2533705720       -1.8615822833
 C         -2.0931545794       -0.9219954354       -1.4038970293
 O         -1.4550601907       -1.5571741638       -2.2639164990
 H         -0.2669208645       -0.5438695916        1.5289274184
 C          0.3906902661       -1.2262077907        1.0028297527
 C         -0.1527889067       -2.3542576538        0.3983333422
 C          0.7008292146       -3.2198422211       -0.2708501053
 C          2.0562998384       -2.9456996443       -0.3473230456
 C          2.5877547259       -1.8113995881        0.2385605973
 C          1.7430376567       -0.9452264511        0.9207832789
 N          2.2765602283        0.2275506899        1.5077772200
 S          2.7310310079        1.4059063546        0.3892117025
 O          2.7359769638        2.6513243761        1.1266198516
 O          1.8964164547        1.3638843790       -0.7911598796
 C          4.4035926548        0.9583035069       -0.0186832712
 C          4.7134155114        0.5483585008       -1.3002395271
 C          6.0225832158        0.1967494337       -1.5913727840
 C          6.9911061158        0.2602009949       -0.6010457041
 C          6.6627122213        0.6748783952        0.6813748251
 C          5.3565480454        1.0288726107        0.9789708505
 H          5.0567576963        1.3617599245        1.9585720498
 H          7.4187966418        0.7226976596        1.4482960240
 H          8.0083273307       -0.0151359801       -0.8307151252
 H          6.2792578314       -0.1263454375       -2.5874561578
 H          3.9242649397        0.5086335815       -2.0342712028
 H          1.6390242267        0.6491155198        2.1703762244
 H          3.6411290247       -1.5921604638        0.1744972580
 H          2.7071107870       -3.6236906382       -0.8778472024
 H          0.3030755906       -4.1008947183       -0.7466682077
 C         -1.6496616721       -2.5289556178        0.4751976480
 H         -1.9367956647       -2.5715637389        1.5362124787
 C         -2.1662798764       -3.7668637036       -0.2232111050
 C         -2.0977129824       -5.0962024759        0.4656678195
 C         -3.4193567379       -4.4148415385        0.2817664817
 H         -4.1152530229       -4.8195134243       -0.4375875913
 H         -3.8936858387       -3.9729594179        1.1459758800
 H         -1.8878752360       -5.9736158507       -0.1267731238
 H         -1.6751833254       -5.1220221997        1.4586157857
 H         -2.0180872182       -3.7345730328       -1.2962749290
 O         -3.1726507281       -0.6998151266        2.0386766735
