  62
        -98.93619613
 C         -2.3700872206       -1.2063037486       -0.0092879345
 C         -3.3550068056       -0.7315532584        0.8977374771
 C         -4.3494403004        0.2092124424        0.3641399844
 C         -4.2854631651        0.5574908996       -0.9334607475
 C         -5.1681575267        1.5650085129       -1.6133744702
 C         -4.7193812178        2.9929793084       -1.2420852057
 C         -5.7407479957        3.7813903519       -0.4219762066
 H         -5.2370057977        4.6728900207       -0.0423686977
 H         -6.5453738013        4.1132609602       -1.0815205396
 C         -6.3770527381        3.0305959439        0.7516674884
 H         -6.8639936936        3.7788502317        1.3806402167
 H         -7.1663020659        2.3738169135        0.3827766306
 C         -5.4181109310        2.2061172726        1.6202135036
 H         -4.4019286631        2.5942465548        1.5475870975
 H         -5.7258408608        2.3145094469        2.6621977820
 C         -5.4104243340        0.6973751898        1.3113450299
 H         -6.3946518306        0.3952264951        0.9427070332
 H         -5.2262439973        0.1517398178        2.2414211845
 H         -3.7810430705        2.9236012392       -0.6876477038
 H         -4.5048520828        3.5550289345       -2.1523270915
 H         -5.0766246798        1.4047111298       -2.6878426352
 H         -6.2037045977        1.4012737711       -1.3234893216
 O         -3.3368331613        0.0756929950       -1.7750287516
 C         -2.3594266492       -0.8105301583       -1.3461845295
 O         -1.5718488365       -1.1482081025       -2.2540659219
 O         -3.4026026375       -1.0895359492        2.1048262763
 C         -1.3483111724       -2.1818581350        0.5513839787
 C         -0.0262188101       -1.5091134506        0.8370289571
 C          0.4618497916       -1.4246395081        2.1358756572
 C          1.6818450248       -0.8238371137        2.3926095711
 C          2.4365995643       -0.2911325554        1.3630135023
 C          1.9569565624       -0.3679118091        0.0618604289
 C          0.7377149875       -0.9796991254       -0.1934338554
 H          0.3670370348       -1.0311440223       -1.2065675744
 N          2.6991888684        0.1955047309       -0.9904651185
 S          4.3247342927       -0.1983192188       -1.1233387071
 O          4.6558011758        0.0107311480       -2.5158762189
 O          4.5983123559       -1.5121444408       -0.5881769127
 C          5.1438713968        1.0416586084       -0.1419369398
 C          6.0099930355        0.6630597079        0.8650516197
 C          6.6436096961        1.6464019356        1.6089990051
 C          6.4021565443        2.9834549355        1.3331575169
 C          5.5314215480        3.3471176253        0.3165085691
 C          4.8954959648        2.3691260458       -0.4313031398
 H          4.2141113447        2.6091031433       -1.2305764514
 H          5.3458395551        4.3879279362        0.1051344906
 H          6.8952737591        3.7470949156        1.9136698713
 H          7.3208364361        1.3658816054        2.3996076832
 H          6.1622880331       -0.3888895033        1.0467944706
 H          2.2375008709        0.1252841973       -1.8861206352
 H          3.3862937871        0.1800909568        1.5568111551
 H          2.0482941140       -0.7664719372        3.4061376982
 H         -0.1279170142       -1.8256756417        2.9472634470
 H         -1.7683631603       -2.5091717392        1.5119085016
 C         -1.1487787690       -3.4056868638       -0.3220913209
 C         -0.6017292508       -4.6565748441        0.2946045043
 C         -2.0375079075       -4.5962420312       -0.1311984329
 H         -2.3439262604       -5.1546577159       -1.0029778075
 H         -2.7949616664       -4.5356778545        0.6366697055
 H          0.0833161956       -5.2579038427       -0.2832649236
 H         -0.3857568611       -4.6391796034        1.3520903465
 H         -0.8468391948       -3.1700798852       -1.3344778368
