  62
        -98.94259852
 C         -1.4537418973       -0.9346483782       -0.4747358495
 C         -2.8070061115       -1.3247644460       -0.6407589079
 C         -3.7977848874       -0.2426804279       -0.6316953047
 C         -3.3934231667        1.0289477904       -0.4621227018
 C         -4.2777043095        2.2464111226       -0.4570956176
 C         -4.9323706958        2.5359440369        0.9004884610
 C         -6.0567620056        1.5786102610        1.2975191376
 H         -6.5671135787        2.0213855094        2.1552606913
 H         -6.7820466781        1.5144634591        0.4856915290
 C         -5.5830342256        0.1692216993        1.6795255444
 H         -4.5105927141        0.1890508697        1.8870509802
 H         -6.0807680414       -0.1455736097        2.5995916731
 C         -5.8628760266       -0.9016102796        0.6249167713
 H         -6.9415601222       -1.0235196085        0.5032419375
 H         -5.4557940243       -1.8506960654        0.9831696027
 C         -5.2459127341       -0.6113022434       -0.7496053842
 H         -5.3108625122       -1.5202350796       -1.3529853255
 H         -5.8011496107        0.1812555506       -1.2511561739
 H         -5.3448732176        3.5464770926        0.8546531275
 H         -4.1577362976        2.5272808296        1.6706604233
 H         -5.0499030565        2.1420892930       -1.2198377236
 H         -3.6410270099        3.0938878813       -0.7194976132
 O         -2.0890162016        1.3618680628       -0.2845785503
 C         -1.0872231190        0.3955607055       -0.2581160556
 O          0.0454786842        0.8569493140       -0.0385559543
 O         -3.1704246834       -2.5222623289       -0.7886826539
 C         -0.4000169763       -2.0277512602       -0.4776117194
 C          0.5621725342       -1.8228432566        0.6635910331
 C          0.0968978422       -1.9707387587        1.9677509947
 C          0.9351191727       -1.7593244624        3.0448534953
 C          2.2537629053       -1.3911354158        2.8440114747
 C          2.7287234421       -1.2451194065        1.5461498214
 C          1.8869466098       -1.4686380171        0.4656257975
 H          2.2774156938       -1.3417993957       -0.5293974932
 N          4.0654941479       -0.8944423303        1.3185511512
 S          4.5474690491       -0.0422722615       -0.0297752281
 O          4.4960329869       -0.8883829499       -1.1967694100
 O          5.8649624249        0.4449551076        0.3266511871
 C          3.4449656552        1.3454158939       -0.2171200331
 C          3.2009920929        2.1523141859        0.8748818145
 C          2.3822226348        3.2574743012        0.7198083363
 C          1.8290703207        3.5394489899       -0.5186590230
 C          2.0885238964        2.7225642486       -1.6060062066
 C          2.9033642035        1.6133482703       -1.4555644775
 H          3.1204268202        0.9456878006       -2.2741716239
 H          1.6501414453        2.9382184396       -2.5679607625
 H          1.1841136162        4.3964512469       -0.6353486730
 H          2.1705647111        3.8917460824        1.5660022842
 H          3.6465394697        1.9123860341        1.8269272071
 H          4.5918049563       -0.6358953864        2.1393361268
 H          2.9099732656       -1.2180410108        3.6833219604
 H          0.5594104716       -1.8748192432        4.0504529987
 H         -0.9376952881       -2.2447990563        2.1248359780
 H         -0.9642398841       -2.9564253935       -0.2882650403
 C          0.2985785133       -2.2102942896       -1.8164875159
 C         -0.4276265658       -1.9736099606       -3.1056817694
 C          0.6791250195       -1.0539597950       -2.6895226644
 H          1.6199416815       -1.1073411233       -3.2187756098
 H          0.4267979492       -0.0628754053       -2.3456481952
 H         -0.2533945535       -2.6538506894       -3.9257863341
 H         -1.4430261007       -1.6096659107       -3.0474596803
 H          0.9881569172       -3.0495428551       -1.8006021816
