  62
        -98.94543930
 C         -2.5921280858        0.0202285691        0.5160479461
 C         -2.5192080372        0.7480074977       -0.6961851263
 C         -2.1167242528        2.1531758970       -0.5724898067
 C         -1.8240661508        2.6610192048        0.6381568602
 C         -1.3569895806        4.0630215890        0.9196682944
 C          0.1498789716        4.2585036429        0.6987726993
 C          0.5914681807        4.3287166239       -0.7640950690
 H         -0.0384136040        5.0386916851       -1.3017510520
 H          1.6090303350        4.7244818650       -0.7692228231
 C          0.5891795282        2.9765525508       -1.4909273798
 H          0.5974494909        2.1677980458       -0.7560430066
 H          1.5069122607        2.8806939164       -2.0768244702
 C         -0.5774375045        2.7717778199       -2.4578137784
 H         -0.4849949913        3.4687561052       -3.2945783677
 H         -0.5165740472        1.7549888854       -2.8544233797
 C         -1.9659311212        2.9510095526       -1.8327186486
 H         -2.1585367472        4.0059028828       -1.6381910454
 H         -2.7088229137        2.5833021090       -2.5452984106
 H          0.6829035475        3.4436182770        1.1958821454
 H          0.4324397946        5.1935109901        1.1887574866
 H         -1.9142710728        4.7702095533        0.3043212089
 H         -1.5818366862        4.2614238526        1.9698607000
 O         -1.9328748972        1.9357238079        1.7840554379
 C         -2.2842597431        0.5967142960        1.7470356748
 O         -2.2996194133        0.0368400412        2.8650207482
 H         -0.2774663990       -0.8912114317        0.5732122335
 C         -0.4641604452       -1.6836090979       -0.1365054375
 C         -1.7631972743       -2.1402944782       -0.3196234990
 C         -1.9797616472       -3.1774763434       -1.2165494573
 C         -0.9181177617       -3.7219178075       -1.9203152430
 C          0.3688033466       -3.2456175687       -1.7530077942
 C          0.5957136760       -2.2054946159       -0.8564095481
 N          1.8777180010       -1.6506106276       -0.7070032755
 S          2.2832606523       -0.7905914608        0.6826129733
 O          2.0926233040       -1.6183389171        1.8548626318
 O          1.6076067534        0.4816731200        0.6752018764
 C          4.0227833579       -0.5442651062        0.3830891236
 C          4.9396693347       -1.4254336777        0.9242794069
 C          6.2869969593       -1.2387162710        0.6573986303
 C          6.6917418875       -0.1814755933       -0.1436165538
 C          5.7598561197        0.6960134322       -0.6780480920
 C          4.4114440428        0.5153805931       -0.4142736893
 H          3.6503022185        1.1750050967       -0.7980901720
 H          6.0781574635        1.5190106942       -1.2972923132
 H          7.7406174478       -0.0382214462       -0.3499706739
 H          7.0139837912       -1.9165445883        1.0748023787
 H          4.5788605514       -2.2259826042        1.5499475584
 H          2.6220774306       -2.2673987543       -1.0007366056
 H          1.1895105759       -3.6624372690       -2.3161469596
 H         -1.0982495837       -4.5276941976       -2.6157682445
 H         -2.9778115505       -3.5546100739       -1.3693995867
 C         -2.8603705616       -1.4733771871        0.4789195788
 H         -2.7848319321       -1.8240566246        1.5198175775
 C         -4.2514810827       -1.7687150678       -0.0401761263
 C         -4.9927246727       -2.9823205229        0.4320898054
 C         -5.4156822605       -1.6201604641        0.8910207440
 H         -6.3347559074       -1.2052553761        0.5056601616
 H         -5.1991780192       -1.3311132324        1.9096139837
 H         -5.6272590294       -3.5041133723       -0.2682956888
 H         -4.4983522371       -3.6242502210        1.1457937912
 H         -4.3863898176       -1.4493048957       -1.0667927119
 O         -2.7705592955        0.2512009534       -1.8253483555
