  62
        -98.93780381
 C         -1.2008270190       -1.5371533962        0.3699413570
 C         -1.7221004146       -0.5395754239        1.2276511662
 C         -2.8659946371        0.2511769874        0.7362798099
 C         -3.3239606269        0.0160932052       -0.5066896032
 C         -4.4429985886        0.7097995396       -1.2368958187
 C         -4.0340657698        2.0938176638       -1.7651540314
 C         -3.2493593955        2.9542726753       -0.7781203393
 H         -2.9392346867        3.8613587316       -1.3046757647
 H         -2.3327906235        2.4319002037       -0.4942009290
 C         -4.0182435571        3.3795060621        0.4712015524
 H         -4.9031781442        3.9442149278        0.1685307501
 H         -3.3688721883        4.0560208915        1.0330157192
 C         -4.4579117076        2.2538588344        1.4102482399
 H         -5.3329028431        1.7385779935        1.0232884692
 H         -4.7624130316        2.7186837609        2.3525995593
 C         -3.3631910785        1.2493510585        1.7537450913
 H         -3.6909715464        0.6554058988        2.6157290396
 H         -2.4764161254        1.7939683797        2.0986384698
 H         -4.9353471102        2.6242524860       -2.0783298933
 H         -3.4029945053        1.9474669042       -2.6455120221
 H         -5.3189541349        0.7818195323       -0.5988813346
 H         -4.7014642345        0.0764633059       -2.0886477363
 O         -2.7587410940       -0.9192660349       -1.3210597240
 C         -1.6765185943       -1.6904352878       -0.9327368585
 O         -1.2535203021       -2.4512576621       -1.8233599373
 O         -1.2398036369       -0.3007810074        2.3688846650
 C          0.0135650563       -2.3107181062        0.8499234861
 C          1.1475478394       -2.1498862170       -0.1333658022
 C          1.9899981269       -3.1767795892       -0.5375995666
 C          3.0226042838       -2.9214187132       -1.4247821831
 C          3.2483220881       -1.6478128424       -1.9139918705
 C          2.4070665783       -0.6133729876       -1.5175383249
 C          1.3760435552       -0.8746870188       -0.6328710656
 H          0.7094491665       -0.0736795174       -0.3559011541
 N          2.5773032036        0.6912476146       -1.9977685913
 S          2.0856657306        2.0117290877       -1.1057957856
 O          0.6472102315        2.1060297828       -1.0790501746
 O          2.7786523809        3.1247335752       -1.7198276540
 C          2.7370115113        1.7378656786        0.5327584224
 C          4.1107887936        1.7598240922        0.6814876951
 C          4.6565552648        1.5172883145        1.9307928747
 C          3.8233124181        1.2523989680        3.0075620697
 C          2.4472660664        1.2399411885        2.8445330055
 C          1.8959028341        1.4865231604        1.5967762299
 H          0.8273070199        1.4764464142        1.4463668105
 H          1.7906544203        1.0313181325        3.6743359479
 H          4.2468353629        1.0568681826        3.9799773174
 H          5.7265183840        1.5321066106        2.0614538693
 H          4.7244659755        1.9804644398       -0.1766157456
 H          3.4175443726        0.8615331956       -2.5283244873
 H          4.0528856223       -1.4557842311       -2.6068826376
 H          3.6652453090       -3.7297388565       -1.7391563585
 H          1.8294437710       -4.1794311962       -0.1771174692
 H          0.3112920425       -1.7824520206        1.7728944640
 C         -0.2525046583       -3.7535779760        1.2526685516
 C         -1.6418877395       -4.2450034211        1.5261166670
 C         -0.8934594716       -4.7434522522        0.3282017608
 H         -0.5327141654       -5.7617525181        0.3385489811
 H         -1.1920568995       -4.3910137512       -0.6460666958
 H         -1.7951312633       -4.9157721510        2.3584187872
 H         -2.4581019186       -3.5555592011        1.3631986807
 H          0.5218210479       -4.1396424455        1.9085162873
