  62
        -98.93365941
 C          1.7555976944        0.0540932647        0.3561494236
 C          2.7545568524        0.7450831753       -0.3688131077
 C          4.0915618995        0.1128773904       -0.4287937508
 C          4.2776501322       -1.0823993527        0.1589190252
 C          5.5440840035       -1.8912353733        0.2506721325
 C          6.5263303109       -1.3353362138        1.2949756122
 C          6.6866593829        0.1827652384        1.2831958781
 H          5.7101405894        0.6465790122        1.4340270441
 H          7.3110251091        0.4570953999        2.1376931125
 C          7.3347969944        0.7594332305        0.0268528249
 H          7.4562588190        1.8336264917        0.1884724403
 H          8.3310525663        0.3274145465       -0.0919805797
 C          6.5608198110        0.5595632279       -1.2776468464
 H          7.0157674252        1.2129231279       -2.0280146096
 H          6.6717417492       -0.4564754017       -1.6465459508
 C          5.0849201056        0.9395886360       -1.2100972444
 H          4.9963881014        1.9610150587       -0.8230464431
 H          4.6908600674        0.9848187075       -2.2324981407
 H          6.1634138338       -1.6231984682        2.2847893834
 H          7.4977682142       -1.8083105539        1.1416772490
 H          5.2503442679       -2.8993022865        0.5517887382
 H          6.0136199523       -1.9618847809       -0.7259385754
 O          3.2759699394       -1.7263665317        0.8254850144
 C          2.0136194171       -1.1846365804        0.9479240337
 O          1.2151483289       -1.8855675788        1.6035893391
 O          2.5718649603        1.8480236251       -0.9450626918
 C          0.3396082083        0.5803222938        0.5343245259
 C         -0.5165618384        0.1560323070       -0.6310301881
 C         -0.1782232988        0.5118796148       -1.9343038504
 C         -0.9580622387        0.0971418802       -2.9970330833
 C         -2.0916448961       -0.6682173895       -2.7834321135
 C         -2.4346258790       -1.0334298673       -1.4870619811
 C         -1.6480995132       -0.6179529068       -0.4195987634
 H         -1.9070593031       -0.9359849048        0.5791985868
 N         -3.5692903591       -1.8182394716       -1.2490468599
 S         -4.4502912842       -1.6686236467        0.1560777120
 O         -3.7812254715       -2.3247249495        1.2510839114
 O         -5.7557202423       -2.1916361167       -0.1877220861
 C         -4.5744813201        0.0823727822        0.4792975291
 C         -4.9438545829        0.9299761814       -0.5466761209
 C         -5.0617375921        2.2857545941       -0.2868079918
 C         -4.8200502985        2.7691747603        0.9898023292
 C         -4.4584737202        1.9048569802        2.0114377810
 C         -4.3304760650        0.5484436277        1.7549396062
 H         -4.0369449234       -0.1563902069        2.5169312732
 H         -4.2690295798        2.2808465964        3.0041762245
 H         -4.9096977713        3.8248652122        1.1901000248
 H         -5.3405114956        2.9606258629       -1.0797820833
 H         -5.1355414408        0.5271490738       -1.5276123525
 H         -4.1473221677       -2.0069789693       -2.0538696287
 H         -2.6998699757       -0.9933361566       -3.6136740490
 H         -0.6844505060        0.3761524784       -4.0033091281
 H          0.7028888262        1.1132488401       -2.0977197459
 H         -0.0444171504        0.0638045930        1.4282761649
 C          0.2921363600        2.0785203117        0.8101803559
 C         -0.4600573316        3.0538093450       -0.0414914499
 C         -0.9795601853        2.6932942988        1.3149496300
 H         -0.9232097162        3.4240296960        2.1072703494
 H         -1.8485449861        2.0537681101        1.3623865292
 H         -0.0192153996        4.0279134599       -0.1880007870
 H         -0.9900317646        2.6803117143       -0.9030521192
 H          1.2134064302        2.4421878593        1.2516724096
