  62
        -98.93970144
 C         -2.4817595598       -1.0493209599        0.3576647392
 C         -2.4634135995        0.1358111098        1.1399841697
 C         -3.5730597994        1.0718663500        0.9331888002
 C         -4.5509977495        0.7614657406        0.0631495502
 C         -5.7770217994        1.5844489709       -0.2263954393
 C         -5.5575672493        2.6949996313       -1.2623530489
 C         -4.7303685691        3.8843161009       -0.7732358185
 H         -4.8367959290        4.6768629713       -1.5164356582
 H         -5.1484598689        4.2566189406        0.1624054917
 C         -3.2368616691        3.5812128606       -0.5866498188
 H         -2.9808029193        2.6603025308       -1.1161531892
 H         -2.6424572990        4.3809071807       -1.0343436785
 C         -2.7916587190        3.4506008699        0.8703151711
 H         -1.7278649790        3.1959357497        0.8817604609
 H         -2.9129197787        4.4100707197        1.3784061215
 C         -3.5447258591        2.3777234897        1.6680682307
 H         -3.0159033490        2.2174193793        2.6109462606
 H         -4.5582085490        2.7139022498        1.8870828310
 H         -5.0837023295        2.2603727416       -2.1453351391
 H         -6.5425263593        3.0622504316       -1.5593246786
 H         -6.5281862096        0.8940070912       -0.6157327495
 H         -6.1510502792        2.0192724406        0.7009084909
 O         -4.5443261598       -0.3903096891       -0.6545295003
 C         -3.5077133300       -1.3087206794       -0.5518588808
 O         -3.6448175602       -2.2891353390       -1.3088866811
 O         -1.5667146094        0.3909146692        1.9896715697
 C         -1.3317174400       -2.0204647402        0.5643839987
 C         -0.2831390601       -1.8737593800       -0.5130598213
 C         -0.5329229203       -2.2420008894       -1.8312997915
 C          0.4507711796       -2.1009964992       -2.7926955615
 C          1.6949004298       -1.5933647895       -2.4626959714
 C          1.9562531400       -1.2255276101       -1.1477069713
 C          0.9669606900       -1.3680895803       -0.1845230313
 H          1.1739756502       -1.0614685308        0.8300292888
 N          3.2290408601       -0.7529616905       -0.7832288313
 S          3.3690363904        0.4273580890        0.4157860492
 O          3.1936406105       -0.1938671615        1.7038687290
 O          2.5108075806        1.5510297293        0.1117430597
 C          5.0818982805        0.8745406988        0.1997800592
 C          5.4091966106        2.0142193090       -0.5097252504
 C          6.7468105707        2.3281368488       -0.6942319304
 C          7.7287525906        1.4997852184       -0.1722496008
 C          7.3847665504        0.3596989182        0.5391059987
 C          6.0496272904        0.0411935784        0.7286546887
 H          5.7340867503       -0.8281236218        1.2814260984
 H          8.1507418304       -0.2804622321        0.9460281184
 H          8.7686636506        1.7458034883       -0.3181561209
 H          7.0170626608        3.2156930490       -1.2432793001
 H          4.6118804207        2.6322563993       -0.8903794000
 H          3.7971848700       -0.5178209203       -1.5863239812
 H          2.4601203097       -1.4847490394       -3.2164311215
 H          0.2445099595       -2.3859316787       -3.8134672116
 H         -1.5085278704       -2.6192119791       -2.0956812415
 H         -0.8694204698       -1.7126350307        1.5129567388
 C         -1.7754536802       -3.4644486102        0.6966170282
 C         -0.8551641903       -4.4429661606        1.3599126377
 C         -2.1105876702       -4.0060438407        2.0521449480
 H         -2.9259650903       -4.7084057106        2.1380773578
 H         -2.0218259300       -3.3346952610        2.8942129683
 H         -0.8054532106       -5.4482677905        0.9711000273
 H          0.0861477898       -4.0667661809        1.7325553377
 H         -2.3687457704       -3.8132335597       -0.1380936819
