  62
        -98.93710889
 C         -1.9736801941       -0.2398006701       -0.3632549922
 C         -2.7946661764        0.7271820529        0.2629954113
 C         -4.1683860032        0.3068325316        0.6033422455
 C         -4.5711772916       -0.9472042253        0.3305343315
 C         -5.8791946009       -1.6592273715        0.6061749374
 C         -7.1334107315       -0.8745793645        0.9829555101
 C         -7.6898044178        0.0159996987       -0.1274216094
 H         -8.0914374164       -0.6235710252       -0.9175415147
 H         -8.5189061233        0.5960164720        0.2838876711
 C         -6.6875428773        0.9701560468       -0.7722577228
 H         -7.2164338855        1.5403575068       -1.5409040550
 H         -5.9083983855        0.3963714328       -1.2784160578
 C         -6.0306297128        1.9692614974        0.1781244233
 H         -6.8007130484        2.5224091767        0.7192214090
 H         -5.4718051653        2.6836610438       -0.4322480064
 C         -5.0497870158        1.3669712301        1.1990621460
 H         -4.3837211941        2.1656235221        1.5376738703
 H         -5.5718373839        0.9848727925        2.0728373957
 H         -6.9588010104       -0.2946150908        1.8843449781
 H         -7.9003367537       -1.6148197004        1.2270766320
 H         -5.6644794799       -2.3739846532        1.4084976852
 H         -6.0857600337       -2.2555172438       -0.2883651222
 O         -3.7351623685       -1.8552685851       -0.2542727403
 C         -2.4451656853       -1.5288565734       -0.6236300234
 O         -1.8233408299       -2.4601761508       -1.1752527989
 O         -2.4219685687        1.8957334836        0.5477392503
 C         -0.5492377878        0.0320278943       -0.8178340237
 C          0.4494214090       -0.0851615876        0.3088260737
 C          0.3161422007        0.6450709904        1.4855470999
 C          1.2552284112        0.5269254985        2.4934113495
 C          2.3582776701       -0.2947382388        2.3376080297
 C          2.5075679580       -1.0176978076        1.1611839069
 C          1.5479434282       -0.9197193909        0.1626791865
 H          1.6745035230       -1.4994752516       -0.7391907675
 N          3.6324742936       -1.8412899968        0.9498273672
 S          4.6168936249       -1.4655093592       -0.3532633664
 O          3.8924990717       -1.6486340918       -1.5838779799
 O          5.8033003553       -2.2720845638       -0.1758174139
 C          5.0122631090        0.2581093847       -0.1134333985
 C          6.1783005776        0.5867080708        0.5503756066
 C          6.4502408558        1.9202586399        0.8096486947
 C          5.5487476320        2.8970236598        0.4144116636
 C          4.3810885061        2.5504620535       -0.2478091860
 C          4.1064329677        1.2189938729       -0.5176649548
 H          3.2083214895        0.9183119860       -1.0318539536
 H          3.6777365782        3.3086678394       -0.5525171379
 H          5.7564931568        3.9347814978        0.6222799981
 H          7.3592375430        2.1927631055        1.3213375106
 H          6.8505740678       -0.2056919009        0.8375101373
 H          4.2028960648       -1.9666511793        1.7748860671
 H          3.0966166782       -0.3787157342        3.1208695640
 H          1.1340639596        1.0909158688        3.4056480387
 H         -0.5312277872        1.3026350787        1.6014535761
 H         -0.3182955975       -0.7594649382       -1.5444479291
 C         -0.3868603626        1.3724500954       -1.5110303842
 C          0.7108938974        1.5390277031       -2.5165395116
 C         -0.7183578626        1.4869048951       -2.9666318383
 H         -1.1842812650        2.3946189574       -3.3193427127
 H         -1.0612584025        0.5954671899       -3.4724997173
 H          1.2281883300        2.4850627267       -2.5656824342
 H          1.3361977253        0.6827101525       -2.7272113243
 H         -0.6280128883        2.2150386185       -0.8765767239
