  62
        -98.93321900
 C         -1.9516797603       -0.9181881795        0.6534800760
 C         -1.9787058835       -0.2658947630       -0.6020232281
 C         -2.3066924433        1.1721241747       -0.5862855765
 C         -2.5061083193        1.7888469774        0.5902046778
 C         -2.8902553056        3.2243117148        0.8218942516
 C         -4.4181873858        3.3716217837        0.9240354471
 C         -5.1367968994        3.5747655629       -0.4092981842
 H         -6.2098030413        3.5354036573       -0.2085881433
 H         -4.9102043545        4.5729895084       -0.7893944766
 C         -4.8018409391        2.5499576794       -1.4959742244
 H         -4.7743906955        1.5489398894       -1.0617721560
 H         -5.6107085338        2.5627191724       -2.2288939101
 C         -3.4761280674        2.8428543648       -2.2141853500
 H         -3.1471436752        3.8499572278       -1.9589203756
 H         -3.6402099066        2.8344476437       -3.2936582781
 C         -2.3442694585        1.8437208879       -1.9321017786
 H         -2.3970797826        1.0198057968       -2.6509615659
 H         -1.3791093419        2.3357257295       -2.0948770246
 H         -4.8073109667        2.4791889417        1.4211357542
 H         -4.6447258165        4.2264183164        1.5644751394
 H         -2.4457226561        3.5123722722        1.7770261730
 H         -2.4827173169        3.8609233828        0.0421916638
 O         -2.4287060783        1.1329518938        1.7821368877
 C         -2.1327086990       -0.2151763085        1.8451696794
 O         -2.0595133520       -0.6701907369        3.0063842292
 H          0.6404623915       -0.9374469570        0.7294851076
 C          0.7225320108       -1.7834445140        0.0608815209
 C         -0.3473218898       -2.6635167704       -0.0577014501
 C         -0.2206402092       -3.7493407137       -0.9125295754
 C          0.9483072683       -3.9383152662       -1.6309756205
 C          2.0014668234       -3.0507560644       -1.5242578764
 C          1.8781012778       -1.9499566672       -0.6805666906
 N          2.9049548787       -0.9942805612       -0.6105533402
 S          2.9242630386        0.1992734286        0.5674820320
 O          2.9768200539       -0.3857429817        1.8911332609
 O          1.8486767336        1.1269077461        0.3175396699
 C          4.4849847526        0.9707105016        0.1833746739
 C          4.5392648040        1.8531507335       -0.8791071522
 C          5.7528478490        2.4379805298       -1.2036367104
 C          6.8863230983        2.1325891357       -0.4645674790
 C          6.8163017438        1.2473453689        0.6004256691
 C          5.6054472234        0.6578544601        0.9292237808
 H          5.5002576300       -0.0291393348        1.7534247665
 H          7.6980404121        1.0144852425        1.1752960123
 H          7.8293128390        2.5901260563       -0.7186997631
 H          5.8098141078        3.1286772778       -2.0294021188
 H          3.6298538651        2.0660816780       -1.4168920409
 H          3.8232249381       -1.3560741768       -0.8229445130
 H          2.9051450475       -3.1935823934       -2.0960964270
 H          1.0357814754       -4.7883674421       -2.2906307487
 H         -1.0394442586       -4.4396132989       -1.0312253292
 C         -1.5718351253       -2.3834109743        0.7812963277
 H         -1.2775814394       -2.5037806869        1.8386886607
 C         -2.7157276266       -3.3571605291        0.5368378267
 C         -4.1446377533       -2.9206854740        0.6593584485
 C         -3.5826330796       -3.2767073640       -0.6823493030
 H         -3.9061286749       -4.1988446778       -1.1426189866
 H         -3.3767710513       -2.4833878699       -1.3827872553
 H         -4.8477340197       -3.5965518797        1.1229326017
 H         -4.3318911030       -1.8789927646        0.8778593309
 H         -2.4894240388       -4.3510395458        0.9106704990
 O         -1.7500622787       -0.8456613776       -1.6957265660
