  62
        -98.93336064
 C          2.4148304804        1.0161585300        0.2665872396
 C          2.7412601806       -0.2874574099        0.7126274696
 C          3.8350598606       -0.9915282599        0.0182217596
 C          4.4472006404       -0.3727782199       -1.0085146805
 C          5.6056588604       -0.8626225499       -1.8358359805
 C          6.9482325005       -0.7636703797       -1.0927787007
 C          6.9135781106       -1.2175351395        0.3642925994
 H          7.8868050406       -0.9888180794        0.8065711093
 H          6.1669302006       -0.6326638896        0.9046051194
 C          6.6430223108       -2.7050455195        0.5766916995
 H          7.4180426408       -3.2859163595        0.0716996395
 H          6.7269347309       -2.9008052894        1.6487775296
 C          5.2767317208       -3.2095767497        0.1082415397
 H          5.2507710707       -3.3253599898       -0.9719128403
 H          5.1360351309       -4.2090931897        0.5303154298
 C          4.0916151208       -2.3705299698        0.5764550997
 H          3.1695813908       -2.9371391399        0.3952225999
 H          4.1444818608       -2.2505137597        1.6646967297
 H          7.2643953103        0.2821476104       -1.1066964508
 H          7.6895687905       -1.3475530696       -1.6407479507
 H          5.4205031705       -1.8790601899       -2.1705909304
 H          5.6506159603       -0.2241683099       -2.7208657006
 O          4.0872231103        0.8748106800       -1.4187970006
 C          3.0686304302        1.5985976200       -0.8192095606
 O          2.8674210301        2.7090223499       -1.3424164206
 H         -0.8299400494        0.5109600399        2.1476122899
 C         -1.0135997195        0.7364426698        1.1058170299
 C         -0.0273684996        1.3664223298        0.3627895497
 C         -0.2618050098        1.6139102896       -0.9869341903
 C         -1.4650977798        1.2530460495       -1.5640925101
 C         -2.4515694297        0.6323713294       -0.8162721900
 C         -2.2181950695        0.3592198496        0.5241789600
 N         -3.2100512194       -0.2736415704        1.2895459301
 S         -4.0118026693       -1.6001832306        0.6450628403
 O         -4.4902809791       -2.3398193305        1.7924051005
 O         -3.1810724993       -2.3251758706       -0.2878733497
 C         -5.4048559395       -0.8817463808       -0.2011296296
 C         -5.6619767195       -1.2238906109       -1.5142326896
 C         -6.7588557096       -0.6638543911       -2.1507275995
 C         -7.5752046997        0.2232130589       -1.4661064195
 C         -7.3048234496        0.5544917390       -0.1466659096
 C         -6.2112068595       -0.0032368708        0.4959290804
 H         -5.9695813094        0.2261768193        1.5201981003
 H         -7.9417916796        1.2451105190        0.3820793304
 H         -8.4268903098        0.6590872187       -1.9640545095
 H         -6.9705163497       -0.9210679512       -3.1761827195
 H         -4.9959201395       -1.9129278409       -2.0091345795
 H         -2.9390984993       -0.4476324203        2.2467545601
 H         -3.3864696097        0.3423690893       -1.2670079399
 H         -1.6376388299        1.4542312394       -2.6105807101
 H          0.5127572801        2.0847532997       -1.5739796204
 C          1.2900121804        1.7222086000        1.0027447796
 H          1.2959258705        1.2761153401        2.0102198996
 C          1.5087636803        3.2189369300        1.1680088294
 C          0.6342128201        4.2630192799        0.5475147894
 C          0.5650793102        4.0138701900        2.0221361694
 H          0.9712373802        4.7522414301        2.6966197393
 H         -0.3078692197        3.5020141200        2.3992315296
 H          1.1118868000        5.1632497499        0.1923692493
 H         -0.1959755799        3.9425254297       -0.0613051105
 H          2.5617403302        3.4671424501        1.2489295393
 O          2.1462309207       -0.8452943699        1.6761842797
