  62
        -98.94014216
 C         -2.4328056593       -0.9715182692        0.0370535689
 C         -3.6866896393       -0.8948726694        0.6977548489
 C         -4.7052421992       -0.0525835589        0.0623665793
 C         -4.4130460491        0.6000120716       -1.0768188604
 C         -5.3479230090        1.4843726821       -1.8563112600
 C         -5.4188251688        2.9267156919       -1.3362182093
 C         -6.1698035988        3.1062242413       -0.0162080392
 H         -6.3312996487        4.1778196813        0.1166754913
 H         -7.1510218889        2.6362878615       -0.0905818795
 C         -5.4286817689        2.5634668206        1.2137864505
 H         -4.3737408489        2.4184965506        0.9691822605
 H         -5.4714046388        3.3003115702        2.0190542309
 C         -5.9926654691        1.2550439804        1.7679311699
 H         -5.3720959391        0.9444065899        2.6123450497
 H         -7.0066663491        1.4205219304        2.1387048500
 C         -6.0250880192        0.1024840609        0.7557473093
 H         -6.8201625592        0.2630130714        0.0278306794
 H         -6.2280029793       -0.8243706693        1.2980463289
 H         -4.4013266188        3.3105728017       -1.2320613891
 H         -5.9226863487        3.5236977223       -2.0998942290
 H         -6.3471509390        1.0479013022       -1.8611573902
 H         -4.9725419590        1.5063634026       -2.8816672700
 O         -3.1969401991        0.5122199017       -1.6744331204
 C         -2.1701381792       -0.2533155687       -1.1310668408
 O         -1.1133733892       -0.2019697985       -1.7859496007
 O         -3.9422616694       -1.5036808299        1.7705808086
 C         -1.3554944595       -1.8210977797        0.6883823885
 C         -0.0716399694       -1.0400289999        0.8004396189
 C          0.0204599508       -0.0247223504        1.7481831294
 C          1.1743923409        0.7253731194        1.8709837198
 C          2.2600146008        0.4828137497        1.0477689397
 C          2.1782032607       -0.5256937198        0.0978455892
 C          1.0212857406       -1.2861262396       -0.0148277412
 H          0.9627512005       -2.0543757992       -0.7704481216
 N          3.2681614107       -0.7598878896       -0.7558065709
 S          4.7989893607       -0.9149714801       -0.0949455310
 O          5.5490049206       -1.7006751097       -1.0507231314
 O          4.7424777506       -1.4305792207        1.2537075188
 C          5.4364009109        0.7475526298       -0.0852985302
 C          5.4470266710        1.4481533804       -1.2753996998
 C          5.9489415312        2.7396927604       -1.2868763792
 C          6.4316109212        3.3046655797       -0.1156663389
 C          6.4167602511        2.5870935191        1.0704992208
 C          5.9152687809        1.2948579092        1.0888053501
 H          5.8788180608        0.7012865988        1.9884525798
 H          6.7924088111        3.0281345987        1.9798208610
 H          6.8212138514        4.3103762897       -0.1277937284
 H          5.9616153013        3.3008301408       -2.2074702989
 H          5.0648243710        0.9736125909       -2.1638922500
 H          3.0936922606       -1.4587021792       -1.4626160013
 H          3.1616282809        1.0672630995        1.1328701300
 H          1.2298261809        1.5092101191        2.6111742401
 H         -0.8304538492        0.1719810994        2.3862667095
 H         -1.7325550795       -1.9984439901        1.7092299984
 C         -1.1665219496       -3.1934404994        0.0591197278
 C         -2.3446210297       -3.9620542590       -0.4581771326
 C         -1.3085587696       -3.4485410286       -1.4103258723
 H         -0.6394990497       -4.1616902085       -1.8704685527
 H         -1.5589423695       -2.6144717983       -2.0467586019
 H         -2.3915675798       -5.0238154991       -0.2687066131
 H         -3.3062013696       -3.4703360989       -0.4368567524
 H         -0.4061441797       -3.7696404697        0.5789856175
