  62
        -98.93913717
 C         -2.4774451807       -1.0441285118        0.3753825348
 C         -2.6411117855        0.1372637088        1.1460859052
 C         -3.8802081742        0.8906936216        0.9294585506
 C         -4.7965176705        0.4272553151        0.0605408407
 C         -6.1239562601        1.0624909410       -0.2529438355
 C         -6.0502267892        2.1775493364       -1.3049571134
 C         -5.4096602384        3.4812248836       -0.8270535627
 H         -5.6204126013        4.2384456885       -1.5847579384
 H         -5.8895927112        3.8032618417        0.0975531075
 C         -3.8905835325        3.4015049759       -0.6195779262
 H         -3.4968408102        2.5204136031       -1.1319623199
 H         -3.4140316569        4.2735150932       -1.0730724219
 C         -3.4516085391        3.3571700069        0.8443042687
 H         -3.7201427670        4.2945320453        1.3367348265
 H         -2.3627746987        3.2613392336        0.8733216995
 C         -4.0496117977        2.1950498575        1.6480660294
 H         -3.5135400542        2.1231044945        2.5976988073
 H         -5.1034290010        2.3821549421        1.8537684111
 H         -7.0731306035        2.3949081079       -1.6207004244
 H         -5.5061481051        1.8017234869       -2.1744077606
 H         -6.5673962511        1.4534626326        0.6631932280
 H         -6.7648271599        0.2668984135       -0.6386643117
 O         -4.6187798590       -0.7238485504       -0.6363898950
 C         -3.4561625171       -1.4743629674       -0.5213445388
 O         -3.4468796817       -2.4814274091       -1.2552481277
 O         -1.7925537455        0.5384099373        1.9882153950
 C         -1.1823151669       -1.8139594652        0.5709790208
 C         -0.2048107046       -1.5264049396       -0.5442991646
 C         -0.3848976117       -2.0371133739       -1.8260602851
 C          0.5388800735       -1.7705490918       -2.8197372169
 C          1.6632999462       -1.0089703241       -2.5546099793
 C          1.8449568208       -0.4820135227       -1.2812718523
 C          0.9086045206       -0.7382854237       -0.2892200752
 H          1.0581278902       -0.3157335533        0.6942050242
 N          2.9611134018        0.3181236849       -0.9894769456
 S          3.6467609727        0.2068529910        0.5498571392
 O          3.6985210994       -1.1757423746        0.9687480560
 O          2.9627964490        1.1183084421        1.4322550418
 C          5.2909402899        0.8122876494        0.2174623433
 C          6.3109326285       -0.0911674346       -0.0141563183
 C          7.5796973141        0.3888007294       -0.2988622428
 C          7.8050725914        1.7562067012       -0.3494961434
 C          6.7713747010        2.6507475074       -0.1141974009
 C          5.5006985528        2.1777222053        0.1722799527
 H          4.6690733791        2.8333129804        0.3721815404
 H          6.9510401246        3.7130531073       -0.1515192451
 H          8.7932374396        2.1274497777       -0.5705966832
 H          8.3859594241       -0.3039178405       -0.4785319490
 H          6.0904265399       -1.1448733293        0.0449573033
 H          3.6619566402        0.2966642272       -1.7177055714
 H          2.3901864316       -0.8154473521       -3.3289207222
 H          0.3877248773       -2.1719083223       -3.8105416643
 H         -1.2628108064       -2.6269655622       -2.0378231599
 H         -0.7480706581       -1.4096302852        1.4963241062
 C         -1.3822904186       -3.3060605372        0.7515313481
 C         -0.2632922613       -4.1136679702        1.3354485261
 C         -1.5071608616       -3.8672664102        2.1343800093
 H         -2.1879818154       -4.6893973136        2.2964785104
 H         -1.4526171015       -3.1750754140        2.9622899613
 H         -0.0884244052       -5.1061980572        0.9495955045
 H          0.6370817046       -3.5867358300        1.6171939579
 H         -1.9822135679       -3.7611834956       -0.0253598439
