  62
        -98.93981383
 C          1.8229003201        1.0070553943        0.4718086562
 C          2.3677433660       -0.1040659765        1.1660583451
 C          3.8245923175       -0.2720662897        1.0960884240
 C          4.5545501084        0.6251027908        0.4091904687
 C          6.0405085657        0.5529812229        0.2119301615
 C          6.3946569696       -0.2164339236       -1.0682758617
 C          5.6749464332       -1.5585493504       -1.2015302072
 H          4.6033163066       -1.3797241158       -1.3171116996
 H          6.0240159343       -2.0246229860       -2.1255110837
 C          5.9024722814       -2.5204326915       -0.0269737365
 H          6.1092294900       -3.5163292471       -0.4245371553
 H          6.7797485330       -2.2103819894        0.5420133811
 C          4.7087487270       -2.6588099739        0.9199667003
 H          3.8058650921       -2.8786731298        0.3440080095
 H          4.8925763774       -3.5135624927        1.5766290529
 C          4.4241392052       -1.4468250503        1.8159950447
 H          3.6827530483       -1.7514322107        2.5607826467
 H          5.3366619346       -1.1538817794        2.3395795989
 H          6.1276786310        0.4014132133       -1.9286197656
 H          7.4741332865       -0.3771094769       -1.0867694168
 H          6.4267956759        1.5704651342        0.1323072831
 H          6.4924164486        0.0694883003        1.0758805314
 O          4.0041089857        1.6868520300       -0.2277114013
 C          2.6298105339        1.9031078153       -0.2315568238
 O          2.2881488013        2.9076598447       -0.8801762215
 O          1.6629993795       -0.9156910133        1.8259833435
 C          0.3150187428        1.1774870121        0.5412027451
 C         -0.3523871897        0.5039457649       -0.6303597461
 C          0.0038751129        0.8192074671       -1.9390238169
 C         -0.6126325661        0.1876811476       -3.0030181832
 C         -1.5957624517       -0.7620168202       -2.7859862922
 C         -1.9504366862       -1.0929590561       -1.4831705594
 C         -1.3304894707       -0.4563224620       -0.4149255888
 H         -1.5913944276       -0.7447575619        0.5921875641
 N         -2.9252001324       -2.0663606349       -1.2433392939
 S         -3.8553994582       -2.0806458967        0.1357219182
 O         -3.0869299637       -2.5378868897        1.2659617223
 O         -4.9980177994       -2.8948866935       -0.2202829615
 C         -4.3846658879       -0.3969068150        0.4003778163
 C         -4.3288071795        0.1297520324        1.6748579766
 C         -4.7796192701        1.4230401553        1.8888403928
 C         -5.2716386576        2.1664029033        0.8272588035
 C         -5.3191371128        1.6243771632       -0.4478927366
 C         -4.8769205184        0.3295288428       -0.6660374896
 H         -4.9114213431       -0.1178295843       -1.6457791804
 H         -5.6984986174        2.2065121277       -1.2719754445
 H         -5.6155686782        3.1745588151        0.9945589950
 H         -4.7388994574        1.8456561514        2.8799197346
 H         -3.9265626043       -0.4784081353        2.4696425368
 H         -3.4099997889       -2.4186277468       -2.0542029341
 H         -2.0752101874       -1.2558859876       -3.6172339425
 H         -0.3278043126        0.4401279408       -4.0133019739
 H          0.7689121568        1.5616650066       -2.1081005476
 H          0.0162868978        0.6255907109        1.4469880880
 C         -0.1191812644        2.6251185693        0.7281481520
 C         -0.8973313462        3.4013669672       -0.2879467260
 C         -1.5663880510        2.9385125144        0.9687191140
 H         -1.8208243584        3.6667757401        1.7233263461
 H         -2.2661955416        2.1198403383        0.8889007049
 H         -0.6606042223        4.4484467758       -0.3980429670
 H         -1.1609552212        2.9159153169       -1.2136796724
 H          0.6037557783        3.1899090915        1.3078414434
