  62
        -98.94796771
 C          1.2492464819        0.7923258312        0.4087718456
 C          2.0805628338        0.5949209400       -0.7195270443
 C          3.0241800127       -0.5259225227       -0.6245851071
 C          3.0087824121       -1.3261345148        0.4566861416
 C          3.8874689854       -2.5266207847        0.6828732579
 C          5.2723555359       -2.1904478944        1.2532234590
 C          6.2386374365       -1.5302940934        0.2688000557
 H          7.2282541720       -1.5511887973        0.7294765389
 H          6.2905689954       -2.1278403386       -0.6418432390
 C          5.8888592709       -0.0780674392       -0.0848142375
 H          5.1884730628        0.3178367344        0.6540448980
 H          6.7905341193        0.5362115758       -0.0336883683
 C          5.2920551389        0.1083499078       -1.4798001090
 H          6.0329193722       -0.1629091284       -2.2350746644
 H          5.0488491219        1.1657796028       -1.6102201448
 C          4.0159145709       -0.7048561352       -1.7341617303
 H          3.5515808816       -0.3398720466       -2.6537790765
 H          4.2592794000       -1.7597024382       -1.8616081017
 H          5.1431427377       -1.5459082855        2.1257540102
 H          5.7186744531       -3.1271310668        1.5951358659
 H          3.3628819354       -3.1636739682        1.3986740341
 H          3.9996114782       -3.0784343541       -0.2510955508
 O          2.1478804876       -1.1411083051        1.4928865787
 C          1.2545427657       -0.0825139133        1.4945643405
 O          0.5218656757       -0.0294622990        2.5048017991
 H         -0.8345862285       -0.3808520368       -0.3366313666
 C         -1.2559917727        0.4446253897       -0.8891330627
 C         -0.7868194969        1.7308980940       -0.6628621640
 C         -1.3217742973        2.7711930169       -1.4123500476
 C         -2.2913047877        2.5165224231       -2.3672533177
 C         -2.7675565594        1.2347565350       -2.5765126930
 C         -2.2421657770        0.1883629618       -1.8271254708
 N         -2.6944998108       -1.1298416111       -1.9919361632
 S         -2.8189190235       -2.1227746617       -0.6509000814
 O         -1.5155916175       -2.5798771359       -0.2370465825
 O         -3.7454672495       -3.1566013540       -1.0624194754
 C         -3.5790307743       -1.1006200485        0.5986850711
 C         -4.9081291025       -0.7690467226        0.4120396361
 C         -5.5299390384        0.0644585080        1.3259661888
 C         -4.8132161485        0.5577704894        2.4061801553
 C         -3.4832807272        0.2116468023        2.5826245626
 C         -2.8553550434       -0.6260650964        1.6729936503
 H         -1.8190857900       -0.9014530082        1.7957099354
 H         -2.9168980812        0.5884907621        3.4195845075
 H         -5.2931155476        1.2124230646        3.1164082969
 H         -6.5663895898        0.3294413713        1.1933917351
 H         -5.4329114157       -1.1826902210       -0.4337974017
 H         -3.4810021410       -1.2372748553       -2.6153452488
 H         -3.5290142352        1.0413080367       -3.3161321689
 H         -2.6905167191        3.3315668084       -2.9513879678
 H         -0.9744498889        3.7790152950       -1.2545937898
 C          0.2446672889        1.9290065855        0.4227387905
 H         -0.2785701547        1.8577703469        1.3886751142
 C          0.9504340350        3.2672201521        0.3487337321
 C          0.3665891499        4.4688807553        1.0272628601
 C          1.5917735284        3.8135410158        1.5879034242
 H          2.5400655177        4.3216451874        1.4972658722
 H          1.4942377033        3.2318614601        2.4934670650
 H         -0.5630535054        4.3404994161        1.5607379435
 H          0.4762423260        5.4326248985        0.5532616222
 H          1.4736999339        3.4091657166       -0.5895248224
 O          2.0384120586        1.3117944411       -1.7532828405
