  62
        -98.94541559
 C         -2.5206436694       -0.4071835037        0.1099894282
 C         -2.4232934953        0.5343713192        1.1690940497
 C         -2.3353128891        1.9448571046        0.7860116587
 C         -2.3748265802        2.2817675970       -0.5152675225
 C         -2.2715969639        3.6743990467       -1.0738525342
 C         -0.8226300997        4.1580177699       -1.2287531110
 C         -0.1192295725        4.5277658702        0.0780555054
 H          0.7871272545        5.0735150016       -0.1918617306
 H         -0.7515779561        5.2061867152        0.6524476929
 C          0.2740646234        3.3226778736        0.9442002760
 H          0.2663764706        2.4191186515        0.3283980643
 H          1.2993763250        3.4537649529        1.2997101870
 C         -0.6080899185        3.1098342119        2.1754604289
 H         -0.2744211514        2.2009652977        2.6826713957
 H         -0.4808272334        3.9483136426        2.8642394375
 C         -2.1031559490        2.9551600956        1.8686186141
 H         -2.5326650406        3.9168143837        1.5892855102
 H         -2.6024915189        2.5951472668        2.7716126941
 H         -0.2478790157        3.3795824647       -1.7384089166
 H         -0.8382666290        5.0399272435       -1.8739430959
 H         -2.7360202180        3.6510051350       -2.0621398208
 H         -2.8266214488        4.3699075085       -0.4434452767
 O         -2.5287793075        1.3597616973       -1.4984515285
 C         -2.5376608137        0.0002090504       -1.2237692772
 O         -2.5833648339       -0.7067431633       -2.2538006960
 O         -2.4038328332        0.2017636021        2.3843167211
 C         -2.4431696658       -1.8710104023        0.5202902366
 C         -0.9783528631       -2.2387724150        0.5587351938
 C         -0.3550755301       -2.6551620649        1.7286514699
 C          1.0149430923       -2.8535442172        1.7676128828
 C          1.7939697696       -2.6039456709        0.6510206256
 C          1.1756601690       -2.1950532068       -0.5224594490
 C         -0.1991114591       -2.0493920967       -0.5741454677
 H         -0.6621963387       -1.7201287893       -1.4931283186
 N          1.9807371192       -1.8122034826       -1.6347303206
 S          2.2845635524       -0.1484011295       -1.5514778727
 O          1.0929923857        0.5993184685       -1.2130131483
 O          2.9175093714        0.2022851611       -2.8048111880
 C          3.4611850441       -0.0597283272       -0.2222490732
 C          4.7688843953       -0.4269822709       -0.4731629749
 C          5.6797589440       -0.4091277463        0.5708791850
 C          5.2677105333       -0.0306140309        1.8401913815
 C          3.9509182751        0.3352624043        2.0748929550
 C          3.0346905205        0.3197017978        1.0348658902
 H          1.9999962458        0.5925836520        1.1730169393
 H          3.6301751445        0.6279569938        3.0617398939
 H          5.9768282320       -0.0200671443        2.6528135597
 H          6.7046268163       -0.6922599189        0.3930112902
 H          5.0411192567       -0.7103069477       -1.4763224143
 H          1.5184345608       -1.9905544277       -2.5176339227
 H          2.8657029867       -2.7147053289        0.6789497297
 H          1.4839348359       -3.1763415069        2.6841073345
 H         -0.9488105031       -2.7920493507        2.6202948932
 H         -2.8276112775       -1.9115794935        1.5484629699
 C         -3.2452047708       -2.8293317857       -0.3327158596
 C         -3.6090483382       -4.1682133889        0.2343312782
 C         -4.6670336989       -3.1260587036        0.0345196634
 H         -5.3843562282       -3.2592902912       -0.7610747062
 H         -5.0705887449       -2.6344830173        0.9076036474
 H         -3.5992123981       -5.0238833098       -0.4229851097
 H         -3.2975002176       -4.3850715783        1.2447070668
 H         -3.0074640083       -2.7750910781       -1.3867863851
