  62
        -98.94652726
 C         -1.1104612815       -1.7963804190       -0.2208708082
 C         -1.2460368910       -0.6148873596       -0.9929523591
 C         -2.5677786208        0.0327956710       -0.9498558596
 C         -3.5506662510       -0.5047107880       -0.2071344892
 C         -4.9252448507        0.0752282026       -0.0431400496
 C         -4.9969843803        1.0152146836        1.1676462497
 C         -3.8797443099        2.0581364531        1.2112065290
 H         -4.0595974296        2.6922462838        2.0824921885
 H         -2.9205861401        1.5605056129        1.3755544393
 C         -3.7769803196        2.9340990122       -0.0447780917
 H         -4.7073886596        2.8829269721       -0.6126682016
 H         -3.6404564391        3.9723724023        0.2653508576
 C         -2.5992039997        2.5852892710       -0.9568985914
 H         -2.4730950894        3.4017893204       -1.6743728920
 H         -1.6872721297        2.5287184411       -0.3559354214
 C         -2.7433263103        1.2859637505       -1.7604301305
 H         -3.7060805403        1.2791708705       -2.2768380405
 H         -1.9486633403        1.2687047096       -2.5122108605
 H         -5.9650455401        1.5198210439        1.1551002494
 H         -4.9386396506        0.4140298042        2.0780110602
 H         -5.1970610805        0.6129288021       -0.9495023900
 H         -5.6278181211       -0.7467957870        0.1056597610
 O         -3.3875074014       -1.6407443576        0.5182391317
 C         -2.1708592717       -2.3004562981        0.5369447221
 O         -2.1593013521       -3.3254606575        1.2501935029
 O         -0.3311004808       -0.1098440404       -1.6942246295
 C          0.1789723382       -2.5937138095       -0.1280792877
 C          1.1212645084       -2.0404501991        0.9157609219
 C          1.8959251281       -2.8934397289        1.6947061325
 C          2.7875035783       -2.3837021486        2.6209571921
 C          2.9311980188       -1.0173991385        2.7840719111
 C          2.1564486192       -0.1563449587        2.0143228305
 C          1.2602915190       -0.6726353891        1.0888948409
 H          0.6610127492        0.0068520608        0.5066502704
 N          2.2676236498        1.2285861413        2.1616358295
 S          1.6880743402        2.3079893207        1.0362951987
 O          2.3309452807        3.5570135307        1.3961469278
 O          0.2466780802        2.3288496613        1.0630708287
 C          2.2896969400        1.7904663993       -0.5614094609
 C          3.4794285797        1.0974139488       -0.6617635504
 C          3.9370519095        0.7322880776       -1.9171956601
 C          3.2081976696        1.0735207771       -3.0457204104
 C          2.0240896499        1.7825035077       -2.9285726809
 C          1.5572280501        2.1434924488       -1.6753208312
 H          0.6288983403        2.6752844893       -1.5438974915
 H          1.4532923600        2.0441684373       -3.8049324311
 H          3.5631645795        0.7821344563       -4.0219568602
 H          4.8574212893        0.1780808472       -2.0095785898
 H          4.0305342696        0.8371683392        0.2271923698
 H          3.0463494499        1.5733282514        2.7002470892
 H          3.6267993590       -0.6176424183        3.5056047908
 H          3.3798848580       -3.0561155384        3.2223902126
 H          1.7859426176       -3.9611172389        1.5800315933
 H         -0.1159886422       -3.6034457392        0.1904164531
 C          0.9158344681       -2.7029898708       -1.4514883376
 C          1.7725576076       -3.9002328613       -1.7262252167
 C          0.4760648577       -3.7224937113       -2.4568412868
 H          0.4983630078       -3.4556512521       -3.5024419870
 H         -0.3530516926       -4.3614253308       -2.1880969664
 H          2.6928193777       -3.7573418021       -2.2708926168
 H          1.8221987573       -4.6704700708       -0.9719431462
 H          1.2497472585       -1.7446391312       -1.8280331883
