  62
        -98.93778427
 C         -2.5684080129       -0.0814117315       -0.1452428715
 C         -2.4024341688       -1.2124266569       -0.9796847070
 C         -1.8226836063       -2.4180431468       -0.3645025226
 C         -1.4830516271       -2.3831267705        0.9354415389
 C         -0.7957307815       -3.4548250171        1.7355987556
 C          0.7273583698       -3.2352465986        1.7152887241
 C          1.4562042217       -3.9146567362        0.5573350933
 H          2.5012086495       -3.5988464195        0.6031078888
 H          1.4292073880       -4.9978659993        0.6989198514
 C          0.9102162662       -3.5870265069       -0.8348488799
 H          1.6954467572       -3.8045065343       -1.5623550391
 H          0.7061029489       -2.5156003657       -0.9051813086
 C         -0.3415873792       -4.3998111362       -1.1992268046
 H         -0.1978699710       -4.8607138416       -2.1788600146
 H         -0.4546507532       -5.2161873197       -0.4857282433
 C         -1.6493813473       -3.5998822376       -1.2795328847
 H         -1.7577945450       -3.1851094508       -2.2868869052
 H         -2.4934010025       -4.2823973445       -1.1299183952
 H          0.9117381227       -2.1579244577        1.6762496365
 H          1.1496283927       -3.6101329218        2.6502708399
 H         -1.0588804778       -4.4431626258        1.3697772732
 H         -1.1502349991       -3.3517095766        2.7633131364
 O         -1.6830708962       -1.2852322995        1.7121515121
 C         -2.1657256622       -0.0979184933        1.1921209280
 O         -2.2063696418        0.8337986864        2.0177787984
 O         -2.7086989793       -1.2076934223       -2.2049331081
 C         -2.9903389771        1.2243673921       -0.8010055073
 C         -1.9439416265        2.2595681425       -0.4690697686
 C         -2.2034972335        3.4983430323        0.0990090276
 C         -1.1566085931        4.3380973725        0.4425083357
 C          0.1580686854        3.9535451724        0.2551790411
 C          0.4261894166        2.7186126852       -0.3261309806
 C         -0.6227038863        1.9057541922       -0.7140672007
 H         -0.4055458739        0.9488644311       -1.1677046051
 N          1.7443573022        2.2702267492       -0.5339947810
 S          2.0164514557        0.6094348177       -0.3444943330
 O          1.6979816097       -0.0512856497       -1.5857827094
 O          1.3505465080        0.1190443248        0.8398435318
 C          3.7836360753        0.5998462329       -0.1067309626
 C          4.6045615083        0.6540444669       -1.2172362592
 C          5.9779245952        0.6822103012       -1.0339615949
 C          6.5045112476        0.6561204923        0.2490438979
 C          5.6681787114        0.5987893442        1.3538440546
 C          4.2935348496        0.5720915286        1.1773979567
 H          3.6037205874        0.5186034121        2.0047795546
 H          6.0795696495        0.5742911810        2.3500157406
 H          7.5736604401        0.6776253149        0.3890934440
 H          6.6311533832        0.7234450721       -1.8905302665
 H          4.1478982045        0.6624475267       -2.1931547408
 H          2.4258042317        2.8148868097       -0.0225052746
 H          0.9701400518        4.5953263856        0.5617789645
 H         -1.3690973003        5.2966808926        0.8914028648
 H         -3.2196392803        3.7936476515        0.3034263839
 H         -2.9257533024        1.0131033044       -1.8826250901
 C         -4.4182487834        1.6705657955       -0.5360633049
 C         -5.4762777872        0.6776468018       -0.1598358170
 C         -5.0196450143        1.6991947190        0.8358318221
 H         -5.6922390054        2.5088093999        1.0794113258
 H         -4.4000336458        1.3793560521        1.6579569751
 H         -6.4582997265        0.7815814767       -0.5963745556
 H         -5.1659577116       -0.3475114617       -0.0161851136
 H         -4.7247107692        2.4606493240       -1.2152509607
