  62
        -98.94509253
 C         -2.3912162706        0.0110958356        0.5841363381
 C         -1.3886423209        0.6413395557        1.3672950608
 C         -1.1886263820        2.0796050879        1.1687726496
 C         -1.9434632302        2.7184058596        0.2574351283
 C         -1.8843867875        4.1906517386       -0.0312734093
 C         -0.9137838298        4.5207049630       -1.1716273285
 C          0.4675784138        3.8851135328       -1.0155015401
 H          0.3820047809        2.8022095030       -1.1308066137
 H          1.0831748092        4.2402926322       -1.8457878078
 C          1.1700070114        4.2014007246        0.3121783398
 H          2.2147050484        4.4405969639        0.1018979372
 H          0.7204409119        5.0830275097        0.7715166466
 C          1.1722983353        3.0442033208        1.3129259598
 H          1.4891705380        2.1327024943        0.7996463717
 H          1.9136097276        3.2628832375        2.0864651087
 C         -0.1600928467        2.7672569543        2.0216048267
 H         -0.5597868264        3.6993142462        2.4281568086
 H          0.0392482961        2.0864952600        2.8544338729
 H         -1.3460897316        4.1667346658       -2.1104953786
 H         -0.8127515242        5.6066678461       -1.2316945787
 H         -2.8859639280        4.5197657742       -0.3153938947
 H         -1.5849139563        4.7147854532        0.8748374941
 O         -2.8583799694        2.0803156028       -0.5108992599
 C         -3.0924961850        0.7109759929       -0.3969608858
 O         -3.9441792518        0.2951240964       -1.2041067082
 O         -0.7045028189        0.0129230118        2.2209187013
 C         -2.5764257001       -1.4754712666        0.8600506326
 C         -1.2955272212       -2.2082995927        0.5463513465
 C         -0.8351083908       -3.2458972320        1.3490760816
 C          0.3505157717       -3.8936655850        1.0515775548
 C          1.1193137792       -3.4920200539       -0.0265759493
 C          0.6727838484       -2.4475885437       -0.8265852167
 C         -0.5446761885       -1.8400929060       -0.5595943925
 H         -0.8802581060       -1.0315841297       -1.1925474806
 N          1.4475523697       -1.9513399902       -1.8969039947
 S          1.9893860724       -0.3716615839       -1.7221088419
 O          0.8675708101        0.5139634150       -1.5579381526
 O          2.8349460871       -0.1339804361       -2.8720909640
 C          2.9944250857       -0.4084810096       -0.2478684631
 C          4.3679054340       -0.4662771099       -0.3904904847
 C          5.1596705890       -0.5526499896        0.7426783032
 C          4.5663606765       -0.5889676460        1.9958776115
 C          3.1873114140       -0.5345073617        2.1216327274
 C          2.3874414941       -0.4445863227        0.9921151606
 H          1.3127887189       -0.3954894395        1.0778758109
 H          2.7150913999       -0.5605637656        3.0905439525
 H          5.1808299253       -0.6586890800        2.8795762884
 H          6.2326476882       -0.5925035028        0.6454696577
 H          4.7826081859       -0.4310292900       -1.3850408801
 H          2.2309389952       -2.5431339850       -2.1396912734
 H          2.0624753561       -3.9715601037       -0.2413859235
 H          0.6942259529       -4.7007781101        1.6800535507
 H         -1.4022911781       -3.5292001959        2.2234823139
 H         -2.7336111504       -1.5615644545        1.9494893843
 C         -3.7797320316       -2.1086799612        0.1822440181
 C         -3.6787090152       -2.8417203380       -1.1181654257
 C         -3.9486766344       -3.5987019598        0.1459314454
 H         -4.9371918464       -4.0029037932        0.3021196109
 H         -3.1511640689       -4.2101566027        0.5389692705
 H         -4.4753606235       -2.7052143757       -1.8330420596
 H         -2.7028287109       -2.9348296796       -1.5707826630
 H         -4.6801017530       -1.5235373798        0.3293024566
