  62
        -98.94231687
 C         -1.9775618998       -1.3336554556       -0.1209240464
 C         -3.0830929582       -1.2155583342        0.7624083764
 C         -4.2722275233       -0.5388860176        0.2353117371
 C         -4.2757966255       -0.0937914157       -1.0338148034
 C         -5.4191071350        0.5920481952       -1.7309601694
 C         -5.4993136270        2.1008353909       -1.4610378424
 C         -5.9730543341        2.4866133233       -0.0591295810
 H         -6.1914545945        3.5562275708       -0.0781761730
 H         -6.9061057289        1.9680109948        0.1634300502
 C         -4.9510714557        2.2122403729        1.0531964753
 H         -3.9608604292        2.0715524231        0.6130489307
 H         -4.8858054035        3.0823498678        1.7104376538
 C         -5.2779407187        1.0046691989        1.9320486534
 H         -6.2018224675        1.1925878288        2.4835433794
 H         -4.4704933979        0.8823792579        2.6585394569
 C         -5.4274762476       -0.3146202677        1.1632209332
 H         -5.4371243848       -1.1337483317        1.8863690769
 H         -6.3668690630       -0.3237491681        0.6107350201
 H         -4.5175383638        2.5424819122       -1.6478241755
 H         -6.1973186586        2.5249663334       -2.1866043625
 H         -5.2659118411        0.4416863982       -2.8018701836
 H         -6.3592114652        0.1196523887       -1.4447111985
 O         -3.2067012975       -0.2410388566       -1.8573559902
 C         -2.0258065969       -0.8348337752       -1.4232341198
 O         -1.1321683286       -0.8443007625       -2.2910663204
 O         -3.0767316995       -1.6677991170        1.9382044092
 C         -0.7464233543       -2.0342376404        0.4272552134
 C          0.2620173918       -1.0516273638        0.9654606510
 C          0.8228097038       -1.2211162216        2.2259316407
 C          1.7592375660       -0.3225884291        2.7081568094
 C          2.1576741999        0.7588575429        1.9435647190
 C          1.6048906996        0.9354301947        0.6811779650
 C          0.6667088335        0.0335196506        0.1999618155
 H          0.2462491606        0.1730250770       -0.7850685355
 N          2.0107113913        2.0237917420       -0.1119359310
 S          3.6585380460        2.2846605505       -0.2636676886
 O          4.1400499198        2.9900678641        0.8981307307
 O          3.8250561175        2.9637297556       -1.5288507687
 C          4.3785826257        0.6537883890       -0.3215881790
 C          4.0596089158       -0.1579573583       -1.3922972410
 C          4.5687489978       -1.4458935265       -1.4319849493
 C          5.3800551721       -1.8990042744       -0.4029416952
 C          5.6950216306       -1.0701427042        0.6624350150
 C          5.1895482902        0.2193461542        0.7070278637
 H          5.4088002682        0.8966691242        1.5160321718
 H          6.3281186275       -1.4245839256        1.4596913065
 H          5.7673138753       -2.9049735669       -0.4342065351
 H          4.3226811827       -2.0919833722       -2.2592256520
 H          3.4259234064        0.2246145755       -2.1772897235
 H          1.5563125385        2.0530351437       -1.0131602954
 H          2.8790388259        1.4735282085        2.3049719491
 H          2.1823075664       -0.4639012677        3.6907158895
 H          0.5093385151       -2.0565005078        2.8344590700
 H         -1.1220694101       -2.6189177807        1.2817985816
 C         -0.1355382004       -3.0217796776       -0.5586931209
 C          1.1542426702       -2.7889591635       -1.2801892707
 C          1.0873425859       -3.8058553869       -0.1832773153
 H          1.1280365571       -4.8531521793       -0.4406722823
 H          1.5667802040       -3.5582751849        0.7515986532
 H          1.2183455178       -3.1245391784       -2.3039136284
 H          1.6876819670       -1.8712209340       -1.0900701704
 H         -0.9027246203       -3.5535832917       -1.1132963885
