  62
        -98.93378406
 C         -2.3564605820       -1.1605036600        0.2910644182
 C         -2.0095623671       -0.2798994788       -0.7626100491
 C         -2.7619821285        0.9829684390       -0.8016717537
 C         -3.7055494138        1.2358140617        0.1230482313
 C         -4.5753966608        2.4621881660        0.1910384004
 C         -3.9220755691        3.6572087511        0.8988726052
 C         -2.8081949396        4.3496164584        0.1125303525
 H         -3.1717587879        4.6020724605       -0.8839535099
 H         -2.5878401158        5.2873911244        0.6264570521
 C         -1.5135927788        3.5324433583       -0.0011450879
 H         -1.5196225221        2.7389022737        0.7505291657
 H         -0.6565224743        4.1735090618        0.2195535737
 C         -1.2753245571        2.9113798750       -1.3775282195
 H         -0.3558222260        2.3242549221       -1.3305160112
 H         -1.1358607912        3.7040064701       -2.1156837754
 C         -2.3978468343        1.9827472226       -1.8576334235
 H         -3.2710692352        2.5654160669       -2.1494802920
 H         -2.0371014810        1.4288776850       -2.7275063386
 H         -4.7086028863        4.3895639391        1.0948212643
 H         -3.5336326399        3.3227650163        1.8639202699
 H         -4.8759647121        2.7543720485       -0.8154795141
 H         -5.4685983928        2.1778429325        0.7516175098
 O         -3.9996120961        0.3649149918        1.1260778530
 C         -3.3300616786       -0.8434931112        1.2374798582
 O         -3.6837628417       -1.5390675853        2.2127331951
 O         -1.1256771682       -0.5232736845       -1.6204519700
 C         -1.6899288062       -2.5261239148        0.4136197932
 C         -0.1924864804       -2.3771745149        0.2710924431
 C          0.6599872957       -3.1100165710       -0.5445375706
 C          2.0295518911       -2.9009807202       -0.5098697920
 C          2.5917322362       -1.9523782941        0.3207284010
 C          1.7507073892       -1.1856248234        1.1179234262
 C          0.3846997974       -1.4146862458        1.0982596137
 H         -0.2588546331       -0.8238607019        1.7394757870
 N          2.2869861264       -0.1932380423        1.9491451094
 S          3.6815028599        0.6175948040        1.5282230398
 O          4.8285270786       -0.1871930462        1.8723371276
 O          3.5847247960        1.8914536267        2.2072553113
 C          3.6446420266        0.8600276630       -0.2400786644
 C          2.5006888378        1.3605908498       -0.8276737124
 C          2.4839875452        1.5586293965       -2.1988102077
 C          3.6074234873        1.2607777353       -2.9543434660
 C          4.7517190673        0.7655745043       -2.3488787109
 C          4.7722056903        0.5609578039       -0.9788326661
 H          5.6363329898        0.1691586906       -0.4667986789
 H          5.6244422723        0.5352012482       -2.9383828233
 H          3.5872063036        1.4150629418       -4.0215576197
 H          1.5912416908        1.9345199792       -2.6726402844
 H          1.6377094726        1.5797709182       -0.2182333337
 H          1.6086749813        0.4097180827        2.3876793251
 H          3.6575710000       -1.8009207335        0.3700989525
 H          2.6696246098       -3.4926782488       -1.1463488582
 H          0.2814935250       -3.8478506865       -1.2265416144
 H         -1.8663184894       -2.8419757511        1.4566887564
 C         -2.4960468040       -3.4900455990       -0.4472090454
 C         -2.2605650282       -3.7635625521       -1.8987848476
 C         -2.0758234443       -4.8596505816       -0.8892019482
 H         -2.8235033849       -5.6388046655       -0.8544983811
 H         -1.0854565608       -5.2089434279       -0.6499844266
 H         -3.1230036768       -3.8093318698       -2.5482770556
 H         -1.4015362205       -3.3079553713       -2.3636305249
 H         -3.5410986931       -3.4076130383       -0.1526132943
