  62
        -98.93051567
 C         -2.4489831251       -1.1164662191       -0.5532204289
 C         -3.5811746801       -0.9211421443        0.2783788603
 C         -4.3843596107        0.2905853985        0.0443763907
 C         -4.0156014624        1.1336217615       -0.9351194064
 C         -4.6497397045        2.4453776750       -1.3068296411
 C         -3.9587742702        3.6093016915       -0.5759355080
 C         -4.5207172369        3.9245786444        0.8097487173
 H         -3.8670266788        4.6737339611        1.2622709667
 H         -5.5096384685        4.3749399236        0.7018276559
 C         -4.6290915831        2.7294038904        1.7603454772
 H         -3.7274976065        2.1178891211        1.6888541962
 H         -4.6759076261        3.1159665227        2.7802917748
 C         -5.8700369304        1.8624407130        1.5007534414
 H         -6.4123778329        1.7176669876        2.4373847453
 H         -6.5450708775        2.3967145012        0.8324628779
 C         -5.5835572225        0.4635711573        0.9361037931
 H         -6.4697430922        0.1064288786        0.4006996948
 H         -5.4166612252       -0.2353570088        1.7616907826
 H         -2.8950626300        3.3705585659       -0.4961871250
 H         -4.0467223956        4.5088096741       -1.1886012278
 H         -5.7161615371        2.4298359480       -1.1028554500
 H         -4.4983500766        2.5703544294       -2.3810211990
 O         -2.9258045169        0.9078398726       -1.7171086223
 C         -2.1131801138       -0.2033512103       -1.5525357132
 O         -1.1549212479       -0.2390279578       -2.3483085933
 O         -3.9091659178       -1.7336168708        1.1844794508
 C         -1.6328978039       -2.3735801558       -0.3064159158
 C         -0.4459595264       -2.0929257307        0.5790174867
 C         -0.2338523607       -2.8175757628        1.7453560780
 C          0.8680245616       -2.5608001437        2.5434742773
 C          1.7797857652       -1.5802307927        2.1958929758
 C          1.5768414613       -0.8513835207        1.0310184560
 C          0.4700286038       -1.1077238919        0.2352213426
 H          0.3177314897       -0.5416324796       -0.6726513624
 N          2.4988201380        0.1579148448        0.6615825819
 S          4.0540584099       -0.3986569106        0.2902275559
 O          4.0157235660       -1.2337760578       -0.8916411224
 O          4.6168929650       -1.0012694694        1.4711032751
 C          4.8848772370        1.1364182133       -0.0618451594
 C          5.0628274975        1.5305169909       -1.3736547839
 C          5.6899530989        2.7398880210       -1.6303884486
 C          6.1213269803        3.5309431758       -0.5764266342
 C          5.9334727498        3.1218867098        0.7356164823
 C          5.3088308013        1.9135027126        0.9990204070
 H          5.1489129378        1.5510632227        2.0008600847
 H          6.2716775352        3.7396589267        1.5518159350
 H          6.6095163136        4.4710477299       -0.7795143537
 H          5.8388252112        3.0590867675       -2.6494501962
 H          4.7172444284        0.8808430891       -2.1621550935
 H          2.1569961386        0.6650330578       -0.1463974228
 H          2.6501884793       -1.3839548090        2.7996351361
 H          1.0192438939       -3.1308548387        3.4476496904
 H         -0.9444452033       -3.5802585156        2.0293122168
 H         -2.3116407171       -3.0360403819        0.2534175040
 C         -1.2560491816       -3.0980884199       -1.5928074836
 C          0.1455396841       -3.2472874245       -2.0972449691
 C         -0.5723326404       -4.4319816426       -1.5280735531
 H         -0.8958577090       -5.2158662725       -2.1958736720
 H         -0.2588218397       -4.7800469691       -0.5550601033
 H          0.2977864991       -3.1938718005       -3.1647946121
 H          0.9565378278       -2.8180358959       -1.5286002429
 H         -2.0212351694       -2.9846383487       -2.3546330472
