  62
        -98.93044051
 C         -2.3896218896       -0.6788453708        0.2980687898
 C         -2.7372801395        0.6941859592        0.2577997605
 C         -4.0819778494        1.0367617996       -0.2355109893
 C         -4.9109575095        0.0480245998       -0.6183159798
 C         -6.3115658395        0.0842505402       -1.1936919498
 C         -7.1384757994        1.3664907503       -1.1526879491
 C         -7.5740233294        1.8014904296        0.2464110711
 H         -8.3175630794        1.0902939795        0.6148379308
 H         -8.0580901193        2.7771828197        0.1664015716
 C         -6.4615719493        1.8832076590        1.2886995711
 H         -6.0269107394        0.8931081189        1.4407723006
 H         -6.9133713493        2.1852049186        2.2375458613
 C         -5.3412251093        2.8721838891        0.9733787916
 H         -4.7029843992        2.9408869386        1.8586688716
 H         -5.7642747892        3.8616633392        0.7892498021
 C         -4.4410443193        2.4947757296       -0.2154183686
 H         -3.4980317993        3.0395164595       -0.1112059684
 H         -4.8877547993        2.7941976701       -1.1604699685
 H         -8.0441750995        1.1714083406       -1.7333001392
 H         -6.6097658294        2.1707177405       -1.6556703787
 H         -6.8626081496       -0.7141908000       -0.6866871901
 H         -6.2092865596       -0.2287651493       -2.2385451199
 O         -4.5300226096       -1.2607098102       -0.5722104205
 C         -3.2790176796       -1.6658320505       -0.1245822407
 O         -3.1154647997       -2.8981304105       -0.1605868613
 O         -1.9480000994        1.6077045090        0.6236933609
 C         -1.0022841196       -1.0119548112        0.8138242396
 C          0.0045933304       -1.0520150207       -0.3068342505
 C         -0.2319847597       -1.7767362901       -1.4711093908
 C          0.7190249503       -1.8169460897       -2.4742718708
 C          1.9235162904       -1.1503063498       -2.3324371805
 C          2.1637922804       -0.4133629404       -1.1786541502
 C          1.2013418205       -0.3636960609       -0.1794846301
 H          1.3959232105        0.2234392187        0.7058631801
 N          3.3624811905        0.2970533094       -1.0142604399
 S          4.0093903005        0.4141068086        0.5417073102
 O          3.9220839205       -0.8657920117        1.2075400796
 O          3.3960659506        1.5286138683        1.2190505507
 C          5.7060442706        0.8051536186        0.1596599403
 C          6.6590394705       -0.1952916114        0.1863532298
 C          7.9695350205        0.1192963486       -0.1380294000
 C          8.3017482206        1.4202235488       -0.4847828194
 C          7.3339109707        2.4137854688       -0.5065737889
 C          6.0222743006        2.1068487488       -0.1817403390
 H          5.2386325207        2.8465778988       -0.1747600186
 H          7.5965679207        3.4246488490       -0.7738132184
 H          9.3220677506        1.6624963388       -0.7366757193
 H          8.7248345304       -0.6496889114       -0.1181435504
 H          6.3556834304       -1.1903050116        0.4697676493
 H          4.0638836905        0.0563709397       -1.7011130400
 H          2.6678631403       -1.1924479795       -3.1129654506
 H          0.5250389102       -2.3846897092       -3.3719492211
 H         -1.1631593297       -2.3137628500       -1.5742540010
 H         -0.7301848295       -0.1614013115        1.4606548500
 C         -0.9563083196       -2.2634025016        1.6794877190
 C         -0.3253238497       -3.5494277514        1.2478580683
 C          0.3418571703       -2.7050786920        2.2894185287
 H          0.3403893203       -3.0469878825        3.3135877986
 H          1.2380508604       -2.1699919419        2.0071576690
 H         -0.8076893498       -4.4666509915        1.5489533279
 H          0.1208061102       -3.5956646310        0.2672007883
 H         -1.8396825196       -2.3519255918        2.3043912889
