  62
        -98.94164140
 C         -1.7125436619       -0.4709959706       -0.2914796226
 C         -2.8231428485       -1.2873713569        0.0459368056
 C         -4.1488629433       -0.7654608194       -0.3094328516
 C         -4.2412805845        0.4357735872       -0.9075758898
 C         -5.5285511239        1.1120629638       -1.2788931222
 C         -6.0306633807        2.0138804006       -0.1426071090
 C         -6.0495545467        1.3318920816        1.2254180372
 H         -5.0229277801        1.1132707831        1.5281759171
 H         -6.4488431120        2.0528491877        1.9420790615
 C         -6.8800764190        0.0420304830        1.2808894630
 H         -7.4889382190        0.0566846913        2.1873364167
 H         -7.5641327546        0.0052514782        0.4322800202
 C         -6.0528062973       -1.2441736146        1.3209489575
 H         -6.7212821363       -2.0702807128        1.5774732126
 H         -5.3027376282       -1.1728154517        2.1125434328
 C         -5.3409818404       -1.6210807690        0.0155571114
 H         -6.0566714196       -1.6134779095       -0.8091217122
 H         -4.9574508337       -2.6392659144        0.1291575167
 H         -7.0356133330        2.3580212495       -0.3938673659
 H         -5.3777558683        2.8876519438       -0.0805588602
 H         -5.3523157248        1.7238736630       -2.1653084644
 H         -6.2752111768        0.3559010780       -1.5140347774
 O         -3.1591565267        1.2000525360       -1.1980103146
 C         -1.8689850475        0.7807755613       -0.8888821436
 O         -0.9898540634        1.6069916567       -1.1944113584
 O         -2.7092615574       -2.4011968949        0.6230320853
 C         -0.3325235262       -0.9908888849        0.0702409483
 C          0.4835065625        0.0855643653        0.7378310844
 C          0.0853316770        0.5508132015        1.9889529106
 C          0.7967360964        1.5434392302        2.6333809838
 C          1.9353177688        2.0776598953        2.0551636789
 C          2.3399393951        1.6217501985        0.8070142154
 C          1.6151241638        0.6325022420        0.1554823541
 H          1.9226499947        0.3331486604       -0.8316606517
 N          3.4882963516        2.1404601797        0.1951215117
 S          4.4529420595        1.1649724585       -0.7511545358
 O          5.7595288569        1.7863832222       -0.6896429096
 O          3.8972723705        1.0127257642       -2.0719371711
 C          4.4934781731       -0.4155491387        0.0785965063
 C          4.8626722383       -0.4552861258        1.4087059121
 C          4.8889652481       -1.6769994231        2.0611442525
 C          4.5508841440       -2.8340119025        1.3759698703
 C          4.1916207750       -2.7793865421        0.0384452797
 C          4.1607742161       -1.5590722390       -0.6179424871
 H          3.8806199349       -1.4699232508       -1.6555954946
 H          3.9313086237       -3.6804045464       -0.4942422401
 H          4.5682579680       -3.7841698889        1.8860186155
 H          5.1706041833       -1.7236705137        3.1006738376
 H          5.1276597523        0.4595215098        1.9129802183
 H          4.0215036641        2.7921017850        0.7504499464
 H          2.4954755868        2.8517680362        2.5570571935
 H          0.4695914307        1.9005566161        3.5982297066
 H         -0.8015270915        0.1302274874        2.4432884726
 H         -0.5281478775       -1.7785958157        0.8171434724
 C          0.4052483856       -1.6617121856       -1.0783262617
 C         -0.3346053769       -2.3830109260       -2.1634992464
 C          0.3966835038       -1.1124201613       -2.4720245897
 H          1.3081405240       -1.1626426082       -3.0507821481
 H         -0.1759605455       -0.2163967228       -2.6547743306
 H          0.0702051907       -3.3138689398       -2.5308750430
 H         -1.4142620496       -2.3553850905       -2.1380137419
 H          1.3327732372       -2.1168689630       -0.7435784367
