  62
        -98.94075492
 C         -1.7308660444       -0.3255194477        0.5111741589
 C         -2.9331671294       -0.4454106490        1.2539504169
 C         -4.1498914000       -0.7087530474        0.4781709311
 C         -4.0765393545       -0.8088954043       -0.8612550172
 C         -5.2237603702       -1.0937026986       -1.7922990556
 C         -6.0395822134        0.1486704058       -2.1754012743
 C         -6.9318433778        0.7088612506       -1.0669324373
 H         -7.6033969385        1.4335114646       -1.5317484740
 H         -7.5495794250       -0.0919339298       -0.6592004589
 C         -6.1688685887        1.4029160486        0.0700807868
 H         -5.1539964907        1.6351448545       -0.2613153841
 H         -6.6526995846        2.3533429847        0.3066841569
 C         -6.0938252505        0.5980528925        1.3676433449
 H         -7.0974493040        0.4733977404        1.7802736645
 H         -5.5015086042        1.1658965958        2.0898458508
 C         -5.4526427571       -0.7874790376        1.2153712007
 H         -5.2471928685       -1.1809614786        2.2139877205
 H         -6.1377104144       -1.4650934431        0.7061857568
 H         -5.3523794772        0.9259146574       -2.5177725650
 H         -6.6759598620       -0.1271848089       -3.0194228047
 H         -4.7887783577       -1.5131450283       -2.7019564916
 H         -5.8823383176       -1.8391739521       -1.3456740838
 O         -2.9077651855       -0.6722373203       -1.5396035198
 C         -1.7119755248       -0.4037732773       -0.8825236783
 O         -0.7404229584       -0.2659124994       -1.6475229771
 O         -2.9864299528       -0.3338851937        2.5078262958
 C         -0.4565670230       -0.0281904830        1.2804508322
 C          0.2951536345        1.1057979138        0.6309888451
 C         -0.3516287363        2.3291155082        0.4686664926
 C          0.2887307512        3.3941883099       -0.1318730343
 C          1.5996785965        3.2720948354       -0.5597918834
 C          2.2572403422        2.0610019138       -0.3937435140
 C          1.6025569278        0.9852179229        0.1905637710
 H          2.1242375962        0.0478349961        0.2821792255
 N          3.5848609761        1.8954048882       -0.8169395035
 S          4.6582035432        1.0837598116        0.1770416338
 O          4.3375115894        1.2760127546        1.5725887786
 O          5.9654050182        1.5447141407       -0.2416692113
 C          4.4957938140       -0.6341636346       -0.2585265614
 C          4.4660420367       -1.5825793952        0.7444909694
 C          4.3926514291       -2.9229267463        0.3987565523
 C          4.3516372266       -3.2889804919       -0.9379555571
 C          4.3820218420       -2.3236788924       -1.9329963237
 C          4.4585828234       -0.9824218721       -1.5939334229
 H          4.4845603640       -0.2065652408       -2.3405423714
 H          4.3456123783       -2.6123565550       -2.9710721271
 H          4.2922787424       -4.3324102674       -1.2049155337
 H          4.3669969539       -3.6747383891        1.1717806438
 H          4.4906059913       -1.2526546987        1.7710292235
 H          4.0055648198        2.7150807732       -1.2297839464
 H          2.1057834652        4.1054602381       -1.0234617491
 H         -0.2308119184        4.3320902312       -0.2605368384
 H         -1.3729817634        2.4284012210        0.8116771316
 H         -0.8093155513        0.3258688475        2.2645505660
 C          0.4120739112       -1.2479919378        1.5480783329
 C         -0.1914527108       -2.6143926255        1.6689916072
 C          0.6836062490       -2.2831005026        0.4993089879
 H          1.6709594622       -2.7189018360        0.4551032543
 H          0.2254730206       -2.1444836471       -0.4669908516
 H          0.1921128023       -3.2776082652        2.4295310263
 H         -1.2549505087       -2.7078537516        1.5036834823
 H          1.2262635174       -1.0200105036        2.2304231256
