  62
        -98.94095369
 C          1.7388388914       -0.9514632062       -0.3304675573
 C          2.1513751012        0.4014656121       -0.4149004107
 C          3.5996776817        0.6191543896       -0.5742072696
 C          4.4241822478       -0.4375068659       -0.6803851158
 C          5.9187207723       -0.3562415088       -0.7885302098
 C          6.5790622207       -0.4038693313        0.5964575562
 C          5.9685509813        0.5683990214        1.6059465276
 H          4.9421522199        0.2626202201        1.8216005778
 H          6.5339440141        0.4702095354        2.5351955234
 C          5.9740316054        2.0364030635        1.1572244104
 H          6.3067055876        2.6566010154        1.9922644880
 H          6.6903687749        2.1737544248        0.3464165835
 C          4.6085512872        2.5720160347        0.7219903346
 H          4.6812255938        3.6596309768        0.6366639531
 H          3.8664465239        2.3555807363        1.4950761865
 C          4.0793357514        2.0426996872       -0.6170293865
 H          3.2068447217        2.6437027739       -0.8907278727
 H          4.8404605148        2.1707317183       -1.3894501848
 H          6.4791534654       -1.4167417962        0.9935162126
 H          7.6426586072       -0.1885711947        0.4792335370
 H          6.2674724880       -1.2065549132       -1.3769746943
 H          6.1911388045        0.5642236603       -1.3011872335
 O          3.9837357851       -1.7212271085       -0.6579991842
 C          2.6409301714       -2.0090859136       -0.4790499909
 O          2.3758720628       -3.2274220266       -0.4821651245
 H         -1.6197524029        0.5641729305        0.5297377803
 C         -1.5420828077        0.3836520075       -0.5285539425
 C         -0.6099780791       -0.5124557071       -1.0256340832
 C         -0.4989291604       -0.6639254579       -2.4057543937
 C         -1.2936830003        0.0707584981       -3.2633837488
 C         -2.2338718320        0.9551938628       -2.7634223389
 C         -2.3510902834        1.1145131199       -1.3884857791
 N         -3.2920491676        2.0020014245       -0.8496834812
 S         -4.0487419466        1.6529171646        0.5936750544
 O         -5.2984872365        2.3814900288        0.5290349472
 O         -3.1991736063        1.9729026189        1.7127002491
 C         -4.3673318897       -0.1034241981        0.5539405876
 C         -5.0537455190       -0.6265776184       -0.5240267872
 C         -5.2972658188       -1.9895955226       -0.5664376714
 C         -4.8557535218       -2.8030897111        0.4659117622
 C         -4.1766043392       -2.2619689486        1.5461787567
 C         -3.9281873197       -0.8992336587        1.5919062532
 H         -3.3986073260       -0.4374318472        2.4101438897
 H         -3.8362733141       -2.8956658012        2.3499045467
 H         -5.0424697743       -3.8647392504        0.4298758467
 H         -5.8277351891       -2.4136613298       -1.4036527177
 H         -5.3914713600        0.0316141471       -1.3077061324
 H         -3.9106695688        2.4378122180       -1.5165666366
 H         -2.8583925128        1.5291603044       -3.4309053546
 H         -1.1880944247       -0.0502729104       -4.3309935083
 H          0.2332442863       -1.3581325298       -2.7959823669
 C          0.2826548538       -1.3379527727       -0.1333222706
 H          0.2201239032       -2.3844216941       -0.4748709805
 C         -0.1697504404       -1.3293484653        1.3191960231
 C          0.7834989705       -1.6388018718        2.4333711218
 C          0.2359693668       -0.2530654939        2.2786200283
 H         -0.4931271997        0.1023043271        2.9930242101
 H          0.8883643366        0.5236905683        1.9116640242
 H          0.4329987541       -2.2437711404        3.2558870113
 H          1.8179670683       -1.8126794439        2.1741520907
 H         -1.1771965672       -1.7204736499        1.4255812636
 O          1.3695024807        1.3854300535       -0.3624243875
