  62
        -98.93650161
 C         -1.8088833114       -0.0632243584        0.3931518544
 C         -2.7485531223       -0.6140956007       -0.5108706263
 C         -4.0180365297        0.1216836027       -0.6621494062
 C         -4.2164929679        1.2582241372        0.0251352362
 C         -5.4063358990        2.1844350226       -0.0119395643
 C         -6.8024643655        1.5457726524       -0.0081776242
 C         -6.9133272333        0.2283133294        0.7730508840
 H         -6.0159384449        0.0731319074        1.3744801567
 H         -7.7584353334        0.2947544203        1.4608859399
 C         -7.1387352129       -0.9856788863       -0.1316219986
 H         -7.5678718653       -1.7934720692        0.4661242164
 H         -7.8721516654       -0.7203469252       -0.8962376816
 C         -5.8867948917       -1.5403752908       -0.8099503365
 H         -5.2436343811       -2.0177293885       -0.0659104983
 H         -6.2005186391       -2.3191814853       -1.5090806322
 C         -5.0345678421       -0.5104499141       -1.5693153521
 H         -4.4657004475       -1.0438910875       -2.3353527062
 H         -5.6578600720        0.2354606542       -2.0561142000
 H         -7.1291310325        1.3781951672       -1.0335859431
 H         -7.4838964026        2.2820242118        0.4215646177
 H         -5.2939745491        2.8243246617        0.8667023137
 H         -5.3091588258        2.8273440684       -0.8917328914
 O         -3.2786232461        1.7613026739        0.8778851916
 C         -2.0721096407        1.1199767908        1.0876293733
 O         -1.3292557712        1.6905709545        1.9129967224
 H          1.5354585968        1.1145638659        0.6630384200
 C          1.4708835041        0.5855306467       -0.2765367507
 C          0.5002830461       -0.3902075621       -0.4596157328
 C          0.4212011105       -1.0314618189       -1.6919314818
 C          1.2921906084       -0.6964196869       -2.7119681720
 C          2.2683482578        0.2657072469       -2.5209580092
 C          2.3544538156        0.9144165153       -1.2954601738
 N          3.3357539180        1.8982129090       -1.0700998988
 S          4.3069631681        1.7505230638        0.2854977712
 O          3.5600737121        2.0656319043        1.4756007677
 O          5.4533730010        2.5877091783        0.0075308627
 C          4.7867698757        0.0330389533        0.2846617221
 C          5.7999325844       -0.3635086384       -0.5665365305
 C          6.1289255522       -1.7071889284       -0.6371949145
 C          5.4347223413       -2.6281930131        0.1327114772
 C          4.4213481037       -2.2143549461        0.9831230267
 C          4.0911387175       -0.8705647068        1.0615964159
 H          3.3133003817       -0.5057846646        1.7129501524
 H          3.8834034292       -2.9318652644        1.5819833789
 H          5.6855637666       -3.6753660103        0.0727541772
 H          6.9202699615       -2.0322970667       -1.2931557690
 H          6.3196143509        0.3860688603       -1.1411668395
 H          3.9021148535        2.1020218329       -1.8815769592
 H          2.9511597003        0.5229816955       -3.3165977635
 H          1.2147966345       -1.1954925459       -3.6658710149
 H         -0.3494728644       -1.7678801215       -1.8535238301
 C         -0.4549720951       -0.7020060722        0.6679342979
 H         -0.0756484896       -0.2025492106        1.5701046085
 C         -0.5510690189       -2.1883439133        0.9481894992
 C          0.5471333878       -2.8533512631        1.7192023634
 C         -0.7959588441       -2.6492632724        2.3521537375
 H         -1.4316595806       -3.5077565873        2.5091835221
 H         -0.8902242968       -1.8921729690        3.1179032917
 H          0.8378741920       -3.8546943475        1.4420197587
 H          1.3612130178       -2.2315895253        2.0597656314
 H         -1.0265287269       -2.7502898483        0.1561158912
 O         -2.5615756553       -1.6660028332       -1.1748134148
