  62
        -98.93786596
 C         -2.6265657942       -1.1348082314        0.1821967074
 C         -3.1789465452       -0.2839212678        1.1743734612
 C         -4.4660639828        0.3411868854        0.8557326770
 C         -5.0600304204        0.0742640528       -0.3213827094
 C         -6.3931125489        0.5987864514       -0.7817284200
 C         -6.3337747090        1.9979520392       -1.4094826689
 C         -6.0972557202        3.1429549320       -0.4239794847
 H         -6.2970097505        4.0731298526       -0.9596108020
 H         -6.8193899458        3.0750165374        0.3902758261
 C         -4.6745230900        3.1998286648        0.1497610998
 H         -4.0066108227        2.5972192927       -0.4701549817
 H         -4.3065459823        4.2275039022        0.1101119422
 C         -4.5560278478        2.7327690129        1.6005798636
 H         -5.1144678715        3.4099213655        2.2508160312
 H         -3.5030467689        2.7791055458        1.8902107364
 C         -5.0518145708        1.3017727180        1.8460370982
 H         -4.7259653588        0.9913884638        2.8419124266
 H         -6.1406287797        1.2692184776        1.8084683402
 H         -5.5516653110        2.0059410362       -2.1720204791
 H         -7.2889111651        2.1700069081       -1.9110258309
 H         -6.7580424132       -0.1017517124       -1.5359525930
 H         -7.0923821141        0.6036809141        0.0550252118
 O         -4.5043044707       -0.7505035211       -1.2453523089
 C         -3.2714311410       -1.3601561241       -1.0353829688
 O         -2.8943404346       -2.0573727241       -1.9935768436
 O         -2.6236561213       -0.0710427203        2.2864121045
 C         -1.3084280754       -1.8047806716        0.5248170254
 C         -0.1257751759       -1.0148977131        0.0262482139
 C         -0.0334528153       -0.5955615932       -1.2970222345
 C          1.0807894148        0.0968185760       -1.7362528120
 C          2.1214110089        0.3854970198       -0.8704073778
 C          2.0366099736       -0.0219650964        0.4535310758
 C          0.9163031724       -0.7150942013        0.8920060525
 H          0.8514007986       -1.0231743228        1.9274857643
 N          3.0987379280        0.2688873174        1.3330585685
 S          4.5875084674       -0.4224573960        0.9525558317
 O          4.4124455470       -1.6473851681        0.2068572156
 O          5.2912853283       -0.5279744899        2.2117042661
 C          5.3881505488        0.8001459894       -0.0630370931
 C          5.6756628042        0.5122092946       -1.3829095081
 C          6.3038734216        1.4753508647       -2.1570768992
 C          6.6319442515        2.7021136024       -1.6002507152
 C          6.3394043195        2.9740964611       -0.2719221544
 C          5.7125534301        2.0152824209        0.5077990732
 H          5.4764247199        2.1826700894        1.5454354253
 H          6.5983463041        3.9284203776        0.1576446287
 H          7.1203522114        3.4499967933       -2.2048264365
 H          6.5338325925        1.2650563466       -3.1892944667
 H          5.4000619632       -0.4546340487       -1.7730077855
 H          2.8766291033        0.0832024946        2.3013128690
 H          2.9906506839        0.9252222016       -1.2093591863
 H          1.1402101456        0.4134848037       -2.7665648052
 H         -0.8393733621       -0.8282535389       -1.9767398867
 H         -1.2713799905       -1.7857635746        1.6262268783
 C         -1.2537916757       -3.2675762580        0.1040917339
 C         -0.4145571948       -3.7858362362       -1.0205011745
 C         -0.0340550833       -4.0918226181        0.3951483022
 H         -0.1637471502       -5.0979524379        0.7642152812
 H          0.8305408469       -3.5829783248        0.7964673051
 H         -0.8309938104       -4.5711905735       -1.6323303530
 H          0.1963024294       -3.0874173055       -1.5699152706
 H         -2.2120544779       -3.7579693114        0.2458951324
