  62
        -98.94469620
 C         -1.9011474939       -0.3210202764       -0.7030507083
 C         -2.9181258289       -1.2320748939       -0.3305041302
 C         -4.2881320920       -0.7032625543       -0.3366930531
 C         -4.4969965287        0.5754550226       -0.7004532719
 C         -5.8332724680        1.2587163950       -0.6959584315
 C         -6.1008811675        1.9461890651        0.6504163747
 C         -5.8496626601        1.0493568606        1.8626295717
 H         -4.7837433820        0.8168439997        1.9181541878
 H         -6.0982216902        1.6300579714        2.7535771226
 C         -6.6546095541       -0.2577848463        1.8628581117
 H         -7.0732001286       -0.4110792764        2.8597836187
 H         -7.4922373440       -0.1769443539        1.1691706638
 C         -5.8370245112       -1.5061561588        1.5263129895
 H         -4.9470770693       -1.5428441825        2.1595652698
 H         -6.4436413646       -2.3840160876        1.7640262263
 C         -5.3937745027       -1.6393342273        0.0638518935
 H         -6.2566467172       -1.5207004732       -0.5945114581
 H         -4.9945216768       -2.6488119635       -0.0711086437
 H         -5.4480668895        2.8186666127        0.7289261873
 H         -7.1355185461        2.2939415101        0.6607517117
 H         -5.8367670091        2.0120363851       -1.4854864719
 H         -6.6112095282        0.5263142809       -0.9027123735
 O         -3.4964813131        1.4150491570       -1.0712828844
 C         -2.1736855678        0.9954272283       -1.0744307393
 O         -1.3581027803        1.8700927910       -1.4221369697
 O         -2.6893986633       -2.4278352846       -0.0041918050
 C         -0.4597458448       -0.7979800082       -0.7121077514
 C          0.3771497769        0.0667294280        0.1967749168
 C         -0.0615943606        0.2844856119        1.5014145885
 C          0.6528724112        1.0909681348        2.3641322596
 C          1.8321830368        1.6867536623        1.9507121426
 C          2.2861107196        1.4673330997        0.6570687253
 C          1.5635565105        0.6559033735       -0.2091779306
 H          1.9357927782        0.5185886880       -1.2100780104
 N          3.4783990832        2.0602401058        0.2087483156
 S          4.6002608800        1.1271586038       -0.6081118090
 O          5.8389997305        1.8654340637       -0.4949132840
 O          4.1473016686        0.8485101947       -1.9463166794
 C          4.6914389142       -0.3752511046        0.3480416663
 C          5.3497681428       -0.3340443322        1.5618850374
 C          5.3696004609       -1.4708072686        2.3528372914
 C          4.7270270792       -2.6218577980        1.9221065811
 C          4.0732761689       -2.6474284988        0.7001770920
 C          4.0522561177       -1.5137408746       -0.0970455690
 H          3.5565429008       -1.4938717007       -1.0534457573
 H          3.5758785812       -3.5441344927        0.3661799211
 H          4.7370614566       -3.5052740109        2.5408857405
 H          5.8814968705       -1.4562387513        3.3015261553
 H          5.8462797885        0.5764142029        1.8561745756
 H          3.9322267647        2.6469498366        0.8937136785
 H          2.3891239707        2.3250137284        2.6197001469
 H          0.2927543667        1.2570577352        3.3682236391
 H         -0.9829135932       -0.1808598000        1.8244758038
 H         -0.4884604852       -1.8148992741       -0.2928229079
 C          0.0587421259       -0.8736380458       -2.1322749320
 C          1.0821432003       -1.9008563011       -2.5096429437
 C         -0.3313803926       -2.0405992917       -2.9873685499
 H         -0.5470741218       -1.8653475959       -4.0306925739
 H         -0.9507491099       -2.8011173918       -2.5346705768
 H          1.8461170722       -1.6294446006       -3.2235200543
 H          1.4143220785       -2.5775067200       -1.7367094104
 H          0.1070314019        0.0974969820       -2.6130611100
