  62
        -98.94350473
 C         -1.9677958391       -0.7902398431        0.5415220461
 C         -2.1245711741       -0.1244945263       -0.6978511370
 C         -2.3722518545        1.3194342164       -0.6170370234
 C         -2.3809881832        1.9310365389        0.5810303691
 C         -2.5775047219        3.4034403116        0.8223004585
 C         -4.0481594333        3.8415747418        0.8616330730
 C         -4.7594063690        3.8556679776       -0.4920127461
 H         -5.7040871364        4.3845020692       -0.3513126451
 H         -4.1668928929        4.4294456610       -1.2051038752
 C         -5.0537421361        2.4630740821       -1.0667241240
 H         -4.9702762534        1.7168199303       -0.2733154803
 H         -6.0826088506        2.4297011788       -1.4317981233
 C         -4.1474612086        2.0520998433       -2.2271243094
 H         -4.3154318958        2.7170728724       -3.0770617863
 H         -4.4193091199        1.0385517870       -2.5321158932
 C         -2.6502248635        2.0584838488       -1.8911460304
 H         -2.1134860390        1.5449607157       -2.6926741781
 H         -2.2816012415        3.0820004801       -1.8244688238
 H         -4.5875019780        3.1877212845        1.5508303562
 H         -4.0746349355        4.8530914088        1.2733662001
 H         -2.1248748872        3.6201646205        1.7925250010
 H         -2.0444040597        3.9711150346        0.0589769462
 O         -2.1872211338        1.2604797340        1.7492049961
 C         -1.9832333336       -0.1096259571        1.7571664771
 O         -1.8326071458       -0.6006314237        2.8969973423
 H          0.5223859125       -0.7772095216        0.4673128610
 C          0.6391749537       -1.6839184661       -0.1090655640
 C         -0.4122651741       -2.5881516433       -0.1840031343
 C         -0.2328542882       -3.7537808270       -0.9183863189
 C          0.9675034853       -3.9950909482       -1.5643872693
 C          2.0066442458       -3.0862810953       -1.4965982155
 C          1.8343903925       -1.9123025574       -0.7695517007
 N          2.8502012475       -0.9435094583       -0.7313472972
 S          2.8827395427        0.2267481470        0.4753510430
 O          2.8599971581       -0.3928824315        1.7830808922
 O          1.8601146812        1.2082019279        0.2092145589
 C          4.4895731323        0.9338614410        0.1633744327
 C          4.6201635005        1.8495011685       -0.8637858125
 C          5.8712426799        2.3815919576       -1.1322057596
 C          6.9652218391        1.9910085685       -0.3740349418
 C          6.8186449554        1.0728137187        0.6547291119
 C          5.5701018309        0.5358681289        0.9275887627
 H          5.4053761150       -0.1738770707        1.7222803901
 H          7.6699055760        0.7737389910        1.2446642714
 H          7.9375405634        2.4074595617       -0.5845115442
 H          5.9880152230        3.0978668420       -1.9293598011
 H          3.7392075985        2.1280882750       -1.4185605359
 H          3.7684052925       -1.3085847337       -0.9411967189
 H          2.9382976759       -3.2730178779       -2.0078968454
 H          1.0949052196       -4.9056227147       -2.1299541016
 H         -1.0335510550       -4.4721353034       -0.9853393902
 C         -1.6869441537       -2.2800965205        0.5669997012
 H         -1.5254743660       -2.5413434661        1.6245316953
 C         -2.8844207287       -3.0518208507        0.0489566902
 C         -3.2217396534       -4.4002897502        0.6084474397
 C         -4.0769165251       -3.2159001863        0.9411491482
 H         -5.0619293692       -3.1478013481        0.5045398006
 H         -4.0097458103       -2.7972495215        1.9353009822
 H         -3.6246096674       -5.1486652866       -0.0572863219
 H         -2.5831402536       -4.7942132513        1.3848437828
 H         -3.0674124477       -2.8705920990       -1.0038958366
 O         -2.0590887769       -0.7034995852       -1.8139351291
