  62
        -98.94473096
 C         -1.5059286194       -1.7707739038       -0.4665765141
 C         -1.5404052736       -0.5980496389       -1.2620344253
 C         -2.7484454459        0.2338670049       -1.1279390320
 C         -3.7196345347       -0.1325436866       -0.2744930531
 C         -4.9725184014        0.6488458842       -0.0062196248
 C         -4.7866962894        1.6227117459        1.1650792296
 C         -3.5339533771        2.4931832181        1.0595432079
 H         -3.5372397332        3.1728409128        1.9150731149
 H         -2.6421486748        1.8689199693        1.1576971651
 C         -3.4301229708        3.3069953241       -0.2375643821
 H         -4.4093663870        3.3773721072       -0.7140695021
 H         -3.1151558419        4.3221342589        0.0135067272
 C         -2.4096030198        2.7604860055       -1.2376171070
 H         -1.4636791006        2.5814317162       -0.7196230975
 H         -2.2305879031        3.5276729545       -1.9964372714
 C         -2.8208610436        1.4764572151       -1.9700201688
 H         -3.8211831952        1.5979564612       -2.3921083901
 H         -2.1163021864        1.3234588368       -2.7929506192
 H         -5.6695762684        2.2624833451        1.2234856226
 H         -4.7238262401        1.0448770712        2.0902247762
 H         -5.2521695691        1.1955201372       -0.9048352072
 H         -5.7685854443       -0.0553508062        0.2427157579
 O         -3.6509372899       -1.2606211489        0.4790373286
 C         -2.5447862555       -2.0899209124        0.4114746276
 O         -2.6058090580       -3.0841431815        1.1643770357
 H          0.4164014416       -0.2664300028        0.3594616823
 C          0.9179180580       -1.0380360251        0.9182120255
 C          0.6430044703       -2.3700912524        0.6474165537
 C          1.2764096551       -3.3497540250        1.4038316635
 C          2.1707515224       -2.9970744383        2.3990390526
 C          2.4411261512       -1.6674565120        2.6662313665
 C          1.7970707343       -0.6779148138        1.9291512035
 N          2.0056789893        0.6702530319        2.2254824127
 S          1.6794114849        1.9412536602        1.1980630030
 O          2.1745170547        3.0926543158        1.9232908153
 O          0.2825297222        1.9656445329        0.8504470321
 C          2.7164048857        1.6756207165       -0.2273935173
 C          4.0669517413        1.9248481295       -0.0633044815
 C          4.9249909554        1.7233756845       -1.1303590157
 C          4.4199464857        1.2792548466       -2.3438769088
 C          3.0642134702        1.0380998273       -2.4923442911
 C          2.1977673182        1.2331649328       -1.4260582601
 H          1.1421985478        1.0332256350       -1.5279100694
 H          2.6636382947        0.6937567083       -3.4321777284
 H          5.0856840134        1.1223544659       -3.1779090768
 H          5.9799655523        1.9135691233       -1.0155945823
 H          4.4141015129        2.2897350287        0.8896963110
 H          2.7313897462        0.8747018709        2.8937352149
 H          3.1274801975       -1.3925531661        3.4522349767
 H          2.6578941666       -3.7658378685        2.9793938660
 H          1.0471886360       -4.3898641203        1.2245823820
 C         -0.3335301024       -2.7385103047       -0.4430485009
 H         -0.7668414559       -3.7156870134       -0.1734021018
 C          0.3407748430       -2.8995128355       -1.7988948837
 C          1.6822089694       -2.3199544913       -2.1194757693
 C          1.5299474291       -3.8005453640       -1.9569974388
 H          1.5849424927       -4.4264453190       -2.8347842284
 H          1.9423327161       -4.2498159464       -1.0670345046
 H          1.8274724698       -1.9153086069       -3.1086309647
 H          2.1940683875       -1.7678255926       -1.3461289374
 H         -0.3837707621       -2.9087594922       -2.6063850028
 O         -0.6311987107       -0.2471989605       -2.0561195590
