  62
        -98.94200320
 C          1.5228120154        1.5182951567        0.1958117537
 C          2.4157598548        0.8615911296        1.0816080982
 C          3.2399258091       -0.2026766127        0.4998856554
 C          3.1014763485       -0.5162492563       -0.8008973899
 C          3.9377994325       -1.5063828697       -1.5658509150
 C          3.4661810732       -2.9615665355       -1.4547204792
 C          3.6892021278       -3.6162915716       -0.0912709489
 H          3.4931424711       -4.6836008043       -0.2112919500
 H          4.7366887541       -3.5102932896        0.1929028148
 C          2.7926828262       -3.0701853924        1.0290601740
 H          2.3681422294       -3.9022473781        1.5947633052
 H          1.9557244974       -2.5195681454        0.5937134434
 C          3.5136459886       -2.1656090170        2.0288626202
 H          4.2730526635       -2.7404313801        2.5636787493
 H          2.7830149875       -1.8120150563        2.7610171751
 C          4.1861413640       -0.9377456080        1.3999669435
 H          4.4808640384       -0.2575341626        2.2029243777
 H          5.0792072759       -1.2379191540        0.8517177741
 H          4.0124377031       -3.5383788245       -2.2047430484
 H          2.4065174385       -3.0000821714       -1.7116117988
 H          4.9747937744       -1.4326694718       -1.2361107481
 H          3.8867012132       -1.2089602551       -2.6157685226
 O          2.1757227944        0.0785528954       -1.5968761063
 C          1.3481983179        1.0926481433       -1.1221589185
 O          0.5299343624        1.5017039600       -1.9647582132
 O          2.5278734937        1.1623655443        2.3000974012
 C          0.7167156287        2.6792359525        0.7506488911
 C         -0.7367448520        2.5459242193        0.3781053241
 C         -1.3677357558        3.3781737139       -0.5370480634
 C         -2.6985242026        3.1827227748       -0.8618083168
 C         -3.4304498981        2.1663568166       -0.2756069150
 C         -2.8085881414        1.3275982250        0.6402240945
 C         -1.4731504767        1.5218034951        0.9616547637
 H         -0.9878326479        0.8623416104        1.6711671657
 N         -3.5572651397        0.2962964685        1.2484028267
 S         -4.1203912123       -0.9541759584        0.2928870168
 O         -4.7521920599       -0.4034731547       -0.8772993896
 O         -4.9540983748       -1.7596386492        1.1554630286
 C         -2.6809204279       -1.9028394721       -0.1723941175
 C         -1.7455429828       -1.3448203092       -1.0216460274
 C         -0.6275809907       -2.0900127398       -1.3639194800
 C         -0.4675174191       -3.3717329364       -0.8595892903
 C         -1.4124731445       -3.9143847435       -0.0024756050
 C         -2.5279283569       -3.1728512351        0.3490850961
 H         -3.2899818963       -3.5527564273        1.0102115981
 H         -1.2815686760       -4.9100017903        0.3895671678
 H          0.3973250239       -3.9547582012       -1.1353659625
 H          0.1103025036       -1.6526939009       -2.0196174520
 H         -1.8859811467       -0.3464474516       -1.4066725790
 H         -3.1150172232       -0.0896644227        2.0710321877
 H         -4.4635594744        1.9950763332       -0.5292602406
 H         -3.1736234594        3.8314659808       -1.5820688353
 H         -0.8079059864        4.1635037459       -1.0174847346
 H          0.7983908278        2.5696626847        1.8447819208
 C          1.2930916008        4.0463337704        0.4102269437
 C          2.7740027302        4.2497319515        0.3029602591
 C          1.9127265719        4.3577310907       -0.9177924171
 H          1.7470077153        5.3372571960       -1.3421376762
 H          1.9558365520        3.5681867470       -1.6517865828
 H          3.2004349752        5.1516389360        0.7155159250
 H          3.4067986800        3.3803156757        0.4069904482
 H          0.7315616828        4.8465047167        0.8829031135
