  62
        -98.93786917
 C          1.7413001763        0.3554634380       -0.4997763244
 C          2.9908109731        0.8875324755       -0.8879498697
 C          4.1372286724        0.6249251370        0.0040031172
 C          3.9308676143       -0.0854232998        1.1288610503
 C          4.9406335146       -0.5043903537        2.1640431036
 C          5.8161227234       -1.6782225080        1.6963714208
 C          6.3310960562       -1.5648711275        0.2639157985
 H          6.8405073888       -2.5006883499        0.0191985284
 H          5.4823085459       -1.4711399586       -0.4158750452
 C          7.3110476147       -0.4212067475        0.0131238983
 H          8.1761444090       -0.5399311263        0.6694568880
 H          7.6620649948       -0.5149390537       -1.0178146130
 C          6.7525084337        0.9915383212        0.1967964442
 H          7.4721057013        1.6859199465       -0.2470193916
 H          6.6829573179        1.2525420790        1.2494746043
 C          5.4186273283        1.2452432275       -0.4985569316
 H          5.5025763535        0.9531058654       -1.5516554940
 H          5.2352442676        2.3266898668       -0.5153794029
 H          5.2199787818       -2.5914834973        1.7639731872
 H          6.6591942322       -1.7745922936        2.3826127569
 H          5.5528244235        0.3444419513        2.4540071803
 H          4.3750940392       -0.8213797949        3.0431766314
 O          2.7040855192       -0.5763910677        1.4654592683
 C          1.5860186983       -0.3780494725        0.6760192053
 O          0.5426439595       -0.8891232158        1.1211716364
 O          3.1512048437        1.5592706896       -1.9440676987
 C          0.5371147272        0.5867375341       -1.3906314800
 C         -0.5696705751        1.3070128733       -0.6596199528
 C         -0.2689716161        2.2469628864        0.3215119907
 C         -1.2717637265        2.8990925871        1.0142972646
 C         -2.6024077534        2.6425842364        0.7334893053
 C         -2.9146687389        1.7299061989       -0.2628128152
 C         -1.9054753942        1.0696737471       -0.9527855001
 H         -2.1699339711        0.3578859129       -1.7199310762
 N         -4.2762288841        1.4701167209       -0.5459615378
 S         -5.0753574520        0.5186584440        0.5809899978
 O         -6.4367944787        0.4046369847        0.1097097964
 O         -4.8916870831        1.0970920811        1.8861900227
 C         -4.2609085381       -1.0633886285        0.4624390587
 C         -4.8496146356       -2.0688421082       -0.2801678337
 C         -4.1652283330       -3.2603841702       -0.4549896719
 C         -2.9007405076       -3.4173279681        0.0940552784
 C         -2.3212258473       -2.3973702226        0.8329205761
 C         -3.0080488682       -1.2084986020        1.0234930000
 H         -2.5735049222       -0.4035286530        1.5937668802
 H         -1.3279587004       -2.4927386794        1.2424899132
 H         -2.3605494647       -4.3392837816       -0.0555071827
 H         -4.6127451540       -4.0584815308       -1.0255317319
 H         -5.8293353283       -1.8987836584       -0.6969828561
 H         -4.4215406134        1.0722648825       -1.4643788309
 H         -3.3979877597        3.1227233108        1.2790239619
 H         -1.0149679773        3.6137269812        1.7818783786
 H          0.7680901381        2.4541944962        0.5476804579
 H          0.8960104983        1.2420334920       -2.1992832690
 C          0.0785999629       -0.7273663452       -1.9938068675
 C         -0.4706838928       -0.7817316587       -3.3876179752
 C          0.8893603094       -1.3385188621       -3.0955765102
 H          1.0249947868       -2.4093924772       -3.1049750400
 H          1.7523808588       -0.7861553648       -3.4381819758
 H         -1.2707163828       -1.4754126473       -3.5995985783
 H         -0.5265724516        0.1428702423       -3.9425914603
 H         -0.3433444592       -1.3963643700       -1.2517993486
