  62
        -98.93812689
 C          2.0084566269        1.3963831187        0.3056185181
 C          2.6328585249        0.7102254141       -0.7628255513
 C          3.7724458995       -0.1513099015       -0.4025697914
 C          4.1581916704       -0.2374438034        0.8819418293
 C          5.3085279949       -1.0224721184        1.4602544623
 C          5.4945184536       -2.4652949961        0.9671629254
 C          4.2005856062       -3.1926792070        0.5725777562
 H          4.1727538945       -4.1629129819        1.0723846859
 H          3.3314575109       -2.6273324388        0.9138842816
 C          4.0890963071       -3.4391639003       -0.9342788086
 H          5.0600591142       -3.7745176119       -1.3053765519
 H          3.3764652641       -4.2497947050       -1.1054858335
 C          3.6216305385       -2.2446437291       -1.7657210797
 H          2.5621439769       -2.0505156828       -1.5747871319
 H          3.7092216189       -2.5153943560       -2.8206789547
 C          4.3860613689       -0.9319089310       -1.5285600940
 H          5.4447273305       -1.1164588020       -1.3629086235
 H          4.2735363468       -0.3132642946       -2.4229486408
 H          6.1764021968       -2.4746300468        0.1179709589
 H          5.9876591106       -3.0132382713        1.7717426366
 H          6.2296765089       -0.4613360665        1.2794492078
 H          5.1382555929       -1.0231639763        2.5394833961
 O          3.5259561437        0.4434587644        1.8799024341
 C          2.4345204077        1.2567119047        1.6243003425
 O          1.9347797395        1.7837516029        2.6398441170
 H         -0.0529873414       -0.1098508497        0.7832810738
 C         -0.6053813734        0.2442524410       -0.0791281395
 C         -0.2899453266        1.4855358269       -0.6191018098
 C         -1.0203408510        1.9351529610       -1.7108457645
 C         -2.0106722082        1.1428188058       -2.2668430787
 C         -2.3005236566       -0.1039416907       -1.7453709023
 C         -1.5919556104       -0.5533134794       -0.6375272733
 N         -1.8873312913       -1.8112845079       -0.0870617158
 S         -3.4940613823       -2.2455163787        0.0813770883
 O         -3.5199250168       -3.1719628731        1.1916498271
 O         -3.9935538374       -2.7537996763       -1.1719020463
 C         -4.3517012567       -0.7387123298        0.5030546527
 C         -5.3653209656       -0.2730627658       -0.3093327930
 C         -6.0015455413        0.9117870707        0.0248888983
 C         -5.6118943966        1.6087611885        1.1577909212
 C         -4.5937365348        1.1261371627        1.9660883659
 C         -3.9561640747       -0.0591764564        1.6382285078
 H         -3.1639864944       -0.4617796834        2.2495280637
 H         -4.2908856644        1.6690260746        2.8471912670
 H         -6.1038814938        2.5334456191        1.4149105547
 H         -6.7949650985        1.2883878969       -0.6002078483
 H         -5.6334860513       -0.8452352736       -1.1825393541
 H         -1.3534599131       -2.0380020869        0.7383830794
 H         -3.0513824889       -0.7416158282       -2.1828399348
 H         -2.5606771986        1.4993200602       -3.1241137494
 H         -0.8065257319        2.9017465748       -2.1358069584
 C          0.8107545605        2.2878133690        0.0331760651
 H          0.4513883749        2.6234790956        1.0171615892
 C          1.2344226000        3.4999754862       -0.7700035470
 C          0.5102765667        4.8023940658       -0.6141133397
 C          1.8919717519        4.6418950200       -0.0569895303
 H          2.7099554800        5.1518071228       -0.5434251336
 H          2.0083927867        4.5554291996        1.0138673975
 H          0.3813210412        5.4282086342       -1.4842638192
 H         -0.3140378098        4.8368224857        0.0818731473
 H          1.6153650213        3.2360665982       -1.7497546102
 O          2.2632611118        0.8120966943       -1.9605683094
