  62
        -98.94349797
 C          1.8088743897        0.5638314805        0.3165728888
 C          2.9564693299        0.6807280321        1.1356504083
 C          4.2408616598        0.7816534105        0.4302495778
 C          4.2540710194        0.7716017577       -0.9155294322
 C          5.4947960792        0.7982934558       -1.7594851025
 C          5.9817438090       -0.6238294349       -2.0717870196
 C          6.0777651192       -1.5283293723       -0.8430317077
 H          6.4596249691       -2.4947608531       -1.1793180958
 H          5.0739426693       -1.7003992714       -0.4477257772
 C          6.9764311396       -0.9852359100        0.2767925109
 H          7.6344724495       -0.2108555609       -0.1189871909
 H          7.6117496196       -1.7956479093        0.6405121425
 C          6.2191803599       -0.4356467774        1.4871014999
 H          6.9377327501       -0.2807709658        2.2964327994
 H          5.4934417899       -1.1763026066        1.8328701316
 C          5.4842764000        0.8927126022        1.2671714373
 H          6.1713065699        1.6270431312        0.8419135255
 H          5.1553687502        1.2554897143        2.2454780366
 H          6.9591761489       -0.5564803260       -2.5528791500
 H          5.2851236888       -1.0805241064       -2.7786338185
 H          6.2720002694        1.3537305568       -1.2382857339
 H          5.2627095091        1.3068178038       -2.6966326036
 O          3.1282071093        0.6830274362       -1.6684744618
 C          1.8787724694        0.5666952076       -1.0767512612
 O          0.9338111292        0.4784111959       -1.8822178508
 O          2.9093313802        0.6917991048        2.3958489083
 C          0.4473331398        0.4283891820        0.9717290294
 C         -0.2312574704       -0.8439777589        0.5276097023
 C          0.5089356495       -2.0219083491        0.4597171846
 C         -0.0762223307       -3.2031444899        0.0493634472
 C         -1.4189546108       -3.2414359805       -0.2837889324
 C         -2.1719898307       -2.0776190802       -0.2022671547
 C         -1.5769672105       -0.8887043194        0.1990338827
 H         -2.1794651104        0.0022450607        0.2552338909
 N         -3.5320853007       -2.0789182608       -0.5432573044
 S         -4.6242393204       -1.1943697888        0.3622789040
 O         -4.2474862301       -1.1478227459        1.7557690138
 O         -5.9083925406       -1.7984233693        0.0749293456
 C         -4.5957647105        0.4426441397       -0.3369860895
 C         -4.8028606002        1.5224053315        0.4985844283
 C         -4.8322066102        2.7970422603       -0.0455618544
 C         -4.6543015605        2.9685934974       -1.4095168348
 C         -4.4488848208        1.8735166457       -2.2350435425
 C         -4.4237752708        0.5961412668       -1.6982990298
 H         -4.2609423510       -0.2741895445       -2.3118483080
 H         -4.3062115610        2.0107775334       -3.2949303629
 H         -4.6734305305        3.9612928865       -1.8310288969
 H         -4.9912968500        3.6496577017        0.5956328438
 H         -4.9236842599        1.3444122638        1.5553567987
 H         -3.9060643409       -2.9785665414       -0.8075077824
 H         -1.8786507709       -4.1636765211       -0.6054438303
 H          0.5150787092       -4.1049219901       -0.0069638310
 H          1.5568705796       -1.9965410686        0.7265722243
 H          0.6466833001        0.3486286043        2.0514356095
 C         -0.3797142401        1.6725348816        0.7221377470
 C         -1.4033210598        2.1183415338        1.7218360262
 C         -0.1278291098        2.8879758333        1.5613566743
 H         -0.1660843298        3.8578705723        1.0890420223
 H          0.6216942304        2.8078371749        2.3351620843
 H         -2.3176444599        2.5605479031        1.3559133555
 H         -1.5307794697        1.5175844557        2.6100717775
 H         -0.5920206203        1.8243299094       -0.3304770733
