  62
        -98.94284559
 C         -2.0983314998       -1.5120767508        0.1122301297
 C         -1.7190775702       -0.3722283904       -0.6409208098
 C         -2.7647515805        0.6497870794       -0.8212252893
 C         -3.9879750704        0.4517271289       -0.2999534793
 C         -5.1223663606        1.4317341686       -0.3681899387
 C         -5.1231559808        2.3629002280        0.8524023517
 C         -3.7620802309        2.9921291982        1.1505200019
 H         -3.0636610307        2.2073627083        1.4504392915
 H         -3.8917072310        3.6520602678        2.0110576222
 C         -3.1607466812        3.7859817790       -0.0174404378
 H         -2.7679639215        4.7291985989        0.3677364527
 H         -3.9415796114        4.0315717891       -0.7383005276
 C         -2.0074919211        3.0831836396       -0.7362954482
 H         -1.2660159910        2.7523434195       -0.0047979984
 H         -1.5253682413        3.8139722300       -1.3909548979
 C         -2.3965247509        1.8792097499       -1.6032608687
 H         -1.5238212308        1.6006106904       -2.2010048189
 H         -3.2030893510        2.1590915900       -2.2841081285
 H         -5.4331047406        1.7862615475        1.7271578215
 H         -5.8617634310        3.1492718279        0.6859412422
 H         -5.0399928509        2.0145034991       -1.2835516284
 H         -6.0594552605        0.8725105184       -0.3879912789
 O         -4.3182469800       -0.6603657415        0.4052769102
 C         -3.3809930597       -1.6492808914        0.6512168097
 O         -3.8046741994       -2.5893241219        1.3533082493
 H          1.3063615404       -2.4914037995       -0.8543112111
 C          1.3300841003       -2.0437744499        0.1267226991
 C          0.1855598904       -2.0335225306        0.9064422292
 C          0.2318102303       -1.4116471312        2.1508702595
 C          1.3982934702       -0.8267007411        2.6060333397
 C          2.5413294801       -0.8409219604        1.8259299196
 C          2.4989261302       -1.4426833198        0.5754459693
 N          3.6447496101       -1.4431808391       -0.2357747108
 S          4.6008454898       -0.0732755488       -0.2793689702
 O          5.2717000197       -0.1269321481       -1.5600293703
 O          5.4659731099       -0.0550321592        0.8755107098
 C          3.4913460494        1.3226554808       -0.2196031494
 C          2.5065107593        1.4245333010       -1.1812142893
 C          1.6484584790        2.5106306808       -1.1468228187
 C          1.7862064888        3.4701944303       -0.1561185383
 C          2.7820507289        3.3549539002        0.8012811316
 C          3.6448756092        2.2715406004        0.7709667310
 H          4.4325766493        2.1421950103        1.4956442509
 H          2.8868853088        4.1030005598        1.5706904819
 H          1.1118054786        4.3118702102       -0.1307612978
 H          0.8690661789        2.5925547009       -1.8863678986
 H          2.4088410894        0.6629438813       -1.9373526197
 H          3.4898844602       -1.8117779187       -1.1624729709
 H          3.4615982201       -0.3966592503        2.1686045298
 H          1.4199954302       -0.3527228015        3.5756588199
 H         -0.6649322396       -1.3880654917        2.7555270796
 C         -1.1178093895       -2.6281246007        0.4356076891
 H         -1.5703340893       -3.1648474012        1.2851137988
 C         -0.9409366793       -3.6532561201       -0.6747540614
 C         -2.1038076993       -4.0611838800       -1.5278097015
 C         -0.9673578195       -3.2923489995       -2.1284826613
 H         -0.2962331194       -3.8134594490       -2.7963160316
 H         -1.1256724798       -2.2578890594       -2.3884353508
 H         -3.0418781494       -3.5496215504       -1.3680271612
 H         -2.2143831390       -5.1044757500       -1.7824892520
 H         -0.2582339591       -4.4460039701       -0.3827349019
 O         -0.5812968103       -0.2009841098       -1.1467385098
