  62
        -98.94608662
 C          0.9431496047        1.6620842164        0.6182336910
 C          1.7081501252        1.5720250744       -0.5693461785
 C          2.8511165423        0.6489193809       -0.5245380381
 C          3.0902197194       -0.0519496402        0.5988092119
 C          4.2256304363       -1.0173086338        0.7786048923
 C          3.8244036721       -2.4491579524        0.4012781816
 C          3.1053795126       -2.5565804898       -0.9428399489
 H          2.8923621594       -3.6131876391       -1.1148206693
 H          2.1436544941       -2.0424180268       -0.8757838593
 C          3.8994063051       -2.0000540119       -2.1328417982
 H          4.9556264951       -1.9242518253       -1.8715394575
 H          3.8210868834       -2.7031264014       -2.9645987685
 C          3.4090863596       -0.6462418802       -2.6493150281
 H          3.8835177008       -0.4596736914       -3.6165315278
 H          2.3296600196       -0.6855544368       -2.8169196588
 C          3.7131053628        0.5602105986       -1.7522049176
 H          3.5034315859        1.4654896294       -2.3295025174
 H          4.7716714926        0.5624874852       -1.4837095769
 H          4.7250487202       -3.0655058152        0.3851723520
 H          3.1600472904       -2.8332800106        1.1765986911
 H          4.5264514857       -0.9979337750        1.8276338225
 H          5.0647469277       -0.6907486462        0.1669799829
 O          2.3012797789        0.0240409319        1.7018805814
 C          1.2105747616        0.8777418253        1.7392682010
 O          0.5688613108        0.8468775969        2.8097662706
 O          1.4619781679        2.2390264955       -1.6077439185
 C         -0.2289756524        2.6239702901        0.6873925106
 C         -1.2575544528        2.2614901736       -0.3562006002
 C         -1.7929691995        3.1689229755       -1.2600069302
 C         -2.7438801201        2.7594654987       -2.1790063509
 C         -3.1996257742        1.4546211901       -2.1952426216
 C         -2.6772551776        0.5399566582       -1.2867958716
 C         -1.7025411569        0.9454364049       -0.3910908708
 H         -1.2907008695        0.2319601835        0.3076050992
 N         -3.1181700117       -0.7917014804       -1.2681267922
 S         -3.3402291551       -1.5844726902        0.1916765774
 O         -4.3721425580       -2.5616533069       -0.0871659236
 O         -3.6146887329       -0.6569967496        1.2628566375
 C         -1.8149154780       -2.4570187150        0.4736236781
 C         -1.0089630677       -2.1346606078        1.5464068087
 C          0.1445028999       -2.8726046914        1.7634894792
 C          0.4659403272       -3.9184889522        0.9129476491
 C         -0.3498836631       -4.2250236793       -0.1659884215
 C         -1.5013700206       -3.4895390457       -0.3894877020
 H         -2.1714318008       -3.7055672434       -1.2048872525
 H         -0.0926667352       -5.0361197999       -0.8277914216
 H          1.3552398153       -4.5014067150        1.0939908894
 H          0.7809372602       -2.6157689237        2.5961592697
 H         -1.2829261255       -1.3167514771        2.1962467687
 H         -3.8621324820       -0.9991644879       -1.9185179428
 H         -3.9518914147        1.1413602227       -2.9032716422
 H         -3.1449738175        3.4710089902       -2.8848278310
 H         -1.4626338463        4.1943722145       -1.2511639497
 H         -0.6919947235        2.4716842012        1.6741283003
 C          0.2607389621        4.0539893086        0.5945156513
 C         -0.5293103448        5.1625586708        1.2202646412
 C          0.7667606934        4.7269647566        1.8334262818
 H          1.6224725555        5.3803874940        1.7533052926
 H          0.7346689711        4.1610787164        2.7534869517
 H         -0.5622974016        6.1192846011        0.7212068114
 H         -1.4443946860        4.8983419735        1.7288985105
 H          0.7840011233        4.2564054972       -0.3327309483
