  62
        -98.94716782
 C         -1.6040073659       -1.5680283457       -0.2425636400
 C         -2.7600009627       -1.2242411588        0.5050850674
 C         -3.5472602179       -0.0976034047       -0.0054719932
 C         -3.1622576212        0.5289728236       -1.1318606528
 C         -3.8754459876        1.6761838797       -1.7954294208
 C         -3.5307528946        3.0558440699       -1.2176209065
 C         -4.0947461133        3.3393100681        0.1749688007
 H         -3.9516644715        4.4044862742        0.3675361514
 H         -5.1690500463        3.1523397705        0.1750285908
 C         -3.4309393071        2.5374774610        1.3036026081
 H         -2.4824426497        2.1242262822        0.9528394961
 H         -3.2017047298        3.2033389887        2.1384167693
 C         -4.2888172422        1.3991508428        1.8563456740
 H         -3.7125802630        0.8776764681        2.6247819437
 H         -5.1848487111        1.8090059417        2.3277346564
 C         -4.7188263871        0.3670665168        0.8051779884
 H         -5.4893373959        0.7860662985        0.1583010394
 H         -5.1315930823       -0.5014311757        1.3241363808
 H         -2.4448833381        3.1677177026       -1.1996941340
 H         -3.9292755309        3.8041970560       -1.9066438580
 H         -4.9526126854        1.5166226798       -1.7376707938
 H         -3.5795869367        1.6604465452       -2.8468815573
 O         -2.0573286384        0.1583324384       -1.8303830285
 C         -1.2371557720       -0.8749788141       -1.3957902509
 O         -0.2456205502       -1.0651271854       -2.1263404492
 O         -3.1167222012       -1.8340220964        1.5471233532
 C         -0.7238391525       -2.6865847266        0.2936343870
 C          0.5281399858       -2.0417374377        0.8333862675
 C          0.5336795850       -1.5283705943        2.1275238706
 C          1.6294476008       -0.8366616317        2.6096916180
 C          2.7326613944       -0.6187282114        1.8024936030
 C          2.7286161832       -1.1154009747        0.5060440468
 C          1.6448029963       -1.8435358323        0.0359315295
 H          1.6538657639       -2.2128099887       -0.9770663690
 N          3.8164306137       -0.8356262792       -0.3433191839
 S          4.2833228149        0.7722630824       -0.4115477986
 O          4.7975055924        0.9717197948       -1.7486532064
 O          5.2139257097        1.0415105845        0.6576421553
 C          2.7978728045        1.7324239534       -0.1573477407
 C          1.7099629816        1.5074901003       -0.9767820156
 C          0.5557234856        2.2461201898       -0.7734791605
 C          0.5057248228        3.1928340775        0.2374727861
 C          1.6087187894        3.4101401764        1.0486981737
 C          2.7654304840        2.6736501225        0.8521064595
 H          3.6430699308        2.8053570354        1.4639593378
 H          1.5678061881        4.1470978242        1.8344386405
 H         -0.3972525054        3.7626047939        0.3948689799
 H         -0.2985131107        2.0599190520       -1.4061015006
 H          1.7497221273        0.7587130019       -1.7523149247
 H          3.6951137679       -1.2053892709       -1.2756605647
 H          3.5892063238       -0.0641836174        2.1505485836
 H          1.6215525752       -0.4514825352        3.6178056200
 H         -0.3421212330       -1.6649915710        2.7459687113
 H         -1.2809021864       -3.1164116623        1.1364155501
 C         -0.4679661380       -3.7748786586       -0.7266289632
 C          0.1072907464       -5.0813163369       -0.2700765857
 C         -1.3218582164       -5.0058272119       -0.7138710213
 H         -1.5940246075       -5.4530538335       -1.6582344798
 H         -2.0946531367       -5.0713433502        0.0378883544
 H          0.8188187213       -5.5836722386       -0.9074920716
 H          0.3054880741       -5.1955429271        0.7849282652
 H         -0.1638619799       -3.3995995180       -1.6957803825
