  62
        -98.94116042
 C         -1.9506814102       -0.8811033802       -0.2222664202
 C         -2.6205401903       -0.3294676397        0.9008730995
 C         -2.9724133701        1.0904715103        0.8230936489
 C         -2.6080256298        1.8041876599       -0.2569500813
 C         -2.8578221396        3.2721664298       -0.4749204919
 C         -4.2487958395        3.5916090198       -1.0402227323
 C         -5.4056727497        3.4252165303       -0.0539580024
 H         -5.1842831598        3.9788377106        0.8588793175
 H         -6.2839373595        3.8855604502       -0.5107530327
 C         -5.7370568599        1.9671967404        0.2933941481
 H         -6.8177741399        1.8172179306        0.2424570180
 H         -5.2860757599        1.3049823401       -0.4492453916
 C         -5.2839635602        1.5281599409        1.6858692083
 H         -5.8247524602        2.0984745612        2.4442298180
 H         -5.5382625503        0.4728180510        1.8117122987
 C         -3.7784751702        1.6842800408        1.9390170685
 H         -3.5251780701        2.7359476908        2.0718301482
 H         -3.5247033304        1.1441200411        2.8543186388
 H         -4.4212268394        2.9613109895       -1.9157156320
 H         -4.2322254593        4.6307810897       -1.3767824626
 H         -2.7100840297        3.8101316101        0.4620481779
 H         -2.1055501195        3.6102736895       -1.1911655419
 O         -1.9374404597        1.2522592194       -1.3008624110
 C         -1.6012659599       -0.0961951506       -1.3219515005
 O         -1.0191504897       -0.4392965211       -2.3704224402
 H          0.7465007799       -1.1237353207       -0.8242341497
 C          0.8674949297       -1.7936339504        0.0140846006
 C         -0.2159801505       -2.5117645901        0.4994088107
 C         -0.0213095808       -3.3725075798        1.5735001810
 C          1.2260951891       -3.4996853597        2.1576560613
 C          2.2958730193       -2.7563985100        1.6944313012
 C          2.1126595796       -1.8973842604        0.6160710508
 N          3.1796223598       -1.1345158107        0.1164138607
 S          2.8534940300        0.4407213092       -0.4057899299
 O          1.8477878600        1.0451744296        0.4391811097
 O          2.5895374803        0.4158123487       -1.8218538999
 C          4.4427100901        1.2000784591       -0.1165665799
 C          4.6465915200        1.9329017495        1.0371013099
 C          5.8972684300        2.4842712094        1.2689400399
 C          6.9182312501        2.2905744590        0.3507079301
 C          6.6985887802        1.5524975986       -0.8030613797
 C          5.4501802502        1.0003011786       -1.0418748397
 H          5.2277661803        0.4280340683       -1.9274396995
 H          7.4935649503        1.4060186282       -1.5162530895
 H          7.8904581101        2.7198342489        0.5341754801
 H          6.0695357099        3.0610746497        2.1632857797
 H          3.8204721799        2.0608717698        1.7182334697
 H          3.9996664897       -1.1690091206        0.7069842709
 H          3.2656450492       -2.8366618100        2.1615498214
 H          1.3625042189       -4.1692128394        2.9931427015
 H         -0.8616950609       -3.9274237695        1.9631511711
 C         -1.5845006603       -2.3513429702       -0.1212281896
 H         -2.3149444405       -2.7846984399        0.5769923404
 C         -1.6617263002       -3.1154293207       -1.4275439994
 C         -1.9021102704       -4.5940747606       -1.3940399689
 C         -2.9784745602       -3.6702234307       -1.8776790594
 H         -3.2109702100       -3.6470482010       -2.9315478094
 H         -3.8334815203       -3.5038573503       -1.2385248496
 H         -1.3923339604       -5.2122311409       -2.1166980886
 H         -2.0321602706       -5.0595996703       -0.4290623987
 H         -0.9978680500       -2.7279925910       -2.1894939594
 O         -2.9186528305       -1.0041871793        1.9238127296
