  62
        -98.93496706
 C         -1.7207676881       -0.3917416895       -0.4339461337
 C         -2.9166987309       -0.4960481263       -1.1850428238
 C         -4.1842351397       -0.4572864947       -0.4344475803
 C         -4.1503789175       -0.3604460828        0.9075019774
 C         -5.2621993923       -0.3364621084        1.9357721157
 C         -6.7147231027       -0.1379136935        1.5109885593
 C         -7.0355993756        1.2531461996        0.9643825363
 H         -6.9858362031        1.9689902917        1.7887570417
 H         -8.0622418021        1.2463657990        0.5919098753
 C         -6.1096901483        1.7586717394       -0.1391162117
 H         -5.0933158009        1.8510105606        0.2491027635
 H         -6.4396864146        2.7629065557       -0.4186420100
 C         -6.0813391842        0.9097917613       -1.4084434759
 H         -5.5080449249        1.4591651189       -2.1603145025
 H         -7.0965519189        0.7842116937       -1.7898314303
 C         -5.4383521088       -0.4796135717       -1.2602131143
 H         -5.1421417424       -0.8227233778       -2.2559872511
 H         -6.1473689213       -1.2029365697       -0.8646254317
 H         -7.3241542309       -0.2882095035        2.4063266552
 H         -7.0072875255       -0.9054300688        0.8004691858
 H         -4.9889309050        0.4448479187        2.6521802990
 H         -5.1855510191       -1.2870108093        2.4751479602
 O         -2.9710207014       -0.3138465002        1.5926858219
 C         -1.7368243296       -0.3262861294        0.9588280489
 O         -0.7702007152       -0.2785074510        1.7406729250
 O         -2.9275773742       -0.6291299014       -2.4383543404
 C         -0.4061204446       -0.4260464841       -1.1909134344
 C          0.5505210987       -1.3943990349       -0.5426102500
 C          0.1456795713       -2.7152586832       -0.3617612441
 C          0.9823159893       -3.6363941703        0.2353461503
 C          2.2541628710       -3.2687873168        0.6405782255
 C          2.6723113978       -1.9586037302        0.4544566040
 C          1.8197438848       -1.0293132626       -0.1259315278
 H          2.1578047056       -0.0129047486       -0.2337122188
 N          3.9532818924       -1.5432392465        0.8512616230
 S          4.8469234824       -0.5872799806       -0.1924296268
 O          4.5470576250       -0.8879367041       -1.5734318024
 O          6.2221680621       -0.7850214047        0.2149425857
 C          4.3763770764        1.0869275721        0.1859760690
 C          4.1394156594        1.9701162344       -0.8486521233
 C          3.8202922951        3.2851713939       -0.5485317870
 C          3.7457086770        3.6916193108        0.7750941270
 C          3.9863646172        2.7916596400        1.8022911959
 C          4.3089889829        1.4765144183        1.5087589765
 H          4.5024050682        0.7506560902        2.2807364225
 H          3.9228353929        3.1110940060        2.8300009592
 H          3.4947734864        4.7148324347        1.0067466106
 H          3.6300745375        3.9854925618       -1.3464700302
 H          4.1992325013        1.6084450720       -1.8629516755
 H          4.5214817339       -2.2648837723        1.2706706497
 H          2.9135626142       -3.9890127462        1.1012869784
 H          0.6482593566       -4.6532176911        0.3787605103
 H         -0.8444721390       -3.0063925178       -0.6865155412
 H         -0.6729383486       -0.8343318506       -2.1809826400
 C          0.2052778077        0.9449984981       -1.4391033543
 C         -0.6502388897        2.1733881141       -1.5098143201
 C          0.2946469985        1.9842028774       -0.3631243881
 H          1.1808137168        2.6002504150       -0.3189696682
 H         -0.1097220520        1.7325909942        0.6043868073
 H         -0.4156304364        2.9180312737       -2.2554176387
 H         -1.7085673668        2.0573322714       -1.3263778585
 H          1.0340777429        0.8962956184       -2.1398308897
