  62
        -98.93944887
 C         -2.4066527295       -0.9286490660       -0.6662474367
 C         -3.6285929464       -0.8865395980        0.0574879754
 C         -4.4651913644        0.3001772141       -0.1428616808
 C         -4.0634996343        1.2599966085       -0.9952612260
 C         -4.8142386329        2.5197632665       -1.3310950683
 C         -4.5986185548        3.6615804714       -0.3283508591
 C         -5.2864904459        3.4774481984        1.0249363496
 H         -5.2373480267        4.4375550376        1.5424664473
 H         -6.3404589482        3.2464496920        0.8673719706
 C         -4.6499288061        2.4033137361        1.9181799015
 H         -3.6455656021        2.1734266306        1.5544367527
 H         -4.5396591242        2.7918515851        2.9331334297
 C         -5.4491926642        1.1037726095        2.0161416303
 H         -6.4060671427        1.2978039985        2.5058687809
 H         -4.8875040495        0.4032059855        2.6394519495
 C         -5.7200619724        0.4252189320        0.6670196634
 H         -6.0935510951       -0.5835422825        0.8592910057
 H         -6.4771621376        0.9791392737        0.1123273262
 H         -3.5251273503        3.7948466291       -0.1758083133
 H         -4.9853764711        4.5745837460       -0.7868494252
 H         -4.4518745217        2.8463348325       -2.3081838601
 H         -5.8793095697        2.3003841345       -1.4108385125
 O         -2.8977791488        1.1758432514       -1.6858259231
 C         -2.0325210684        0.1022008260       -1.5280105058
 O         -0.9955430715        0.2039216931       -2.2149916916
 O         -4.0062198440       -1.8079514533        0.8289706602
 C         -1.5308347889       -2.1514644535       -0.4487390466
 C         -0.3955965718       -1.8476480982        0.5008165487
 C         -0.3552228487       -2.4266476598        1.7637772186
 C          0.6882463623       -2.1536078881        2.6311257063
 C          1.7071638741       -1.2945650872        2.2613035126
 C          1.6728476586       -0.7055982747        1.0035419885
 C          0.6321480169       -0.9916056061        0.1306228259
 H          0.6025822357       -0.5228372142       -0.8419959822
 N          2.6835256150        0.2018439922        0.6224235123
 S          4.2809770950       -0.3165585866        0.8089759127
 O          4.4682460318       -1.6026298811        0.1731875698
 O          4.6190615610       -0.2545897411        2.2087751100
 C          5.1585647593        0.9521457264       -0.0810160499
 C          5.5529426933        0.7177755887       -1.3842461664
 C          6.2157283870        1.7207284332       -2.0741974180
 C          6.4678588254        2.9347857960       -1.4534042394
 C          6.0650066906        3.1550505537       -0.1445147837
 C          5.4035700440        2.1560208361        0.5514822667
 H          5.0795172996        2.2786197045        1.5716712079
 H          6.2647858872        4.0998928937        0.3346632031
 H          6.9837513171        3.7133719484       -1.9928081073
 H          6.5320055934        1.5516176801       -3.0909476050
 H          5.3427426916       -0.2439094198       -1.8245918561
 H          2.5374093036        0.5283859592       -0.3243253221
 H          2.5286647049       -1.0787587190        2.9248540778
 H          0.7084801902       -2.6131007990        3.6079888408
 H         -1.1547027501       -3.0873999583        2.0667942147
 H         -2.1854099532       -2.8841602117        0.0423290680
 C         -1.0178430285       -2.7600729901       -1.7392879420
 C         -0.5520872716       -4.1840287828       -1.7340899994
 C         -1.8289271088       -3.8151653933       -2.4268018511
 H         -1.8535947281       -3.8234651055       -3.5061210443
 H         -2.7614702327       -4.1078902126       -1.9667425329
 H          0.3043744539       -4.4479474203       -2.3354152716
 H         -0.6181558855       -4.7274543475       -0.8035740496
 H         -0.4846752913       -2.0586194111       -2.3674793353
