  62
        -98.93881630
 C          1.8838102097       -0.4962371791        0.5886944062
 C          2.8998120701       -1.3231480792        0.0576344420
 C          4.2781537212       -0.8134118635        0.1560110492
 C          4.4919520683        0.3771961210        0.7427934468
 C          5.8033642999        1.0968113530        0.8962692724
 C          6.0229346160        2.0790467719       -0.2669265453
 C          6.6888058944        1.4755241754       -1.5031015978
 H          6.6628706681        2.2342851582       -2.2886534644
 H          7.7381290581        1.2703664259       -1.2808702642
 C          6.0424775556        0.1940104001       -2.0358104220
 H          4.9560098700        0.2976520890       -2.0227364993
 H          6.3434314435        0.0763284120       -3.0786510876
 C          6.4577615566       -1.0615894515       -1.2546436218
 H          6.8040966011       -1.8245004955       -1.9549397381
 H          7.3079853163       -0.8189954466       -0.6174269047
 C          5.3477986077       -1.7066686226       -0.4110970251
 H          5.8047616284       -2.2682772842        0.4104829963
 H          4.8039792745       -2.4347835996       -1.0211519033
 H          5.0504703441        2.4978941122       -0.5386701173
 H          6.6465072818        2.9038625096        0.0839447971
 H          5.7383979951        1.6670170595        1.8252875792
 H          6.6241959655        0.3902553374        0.9753869305
 O          3.4833353546        1.1395778942        1.2489293276
 C          2.1610111365        0.7339865169        1.1836621606
 O          1.3501873360        1.5383629370        1.6803909933
 O          2.6646918392       -2.4361155298       -0.4864229933
 C          0.4419014810       -0.9664782178        0.5156767458
 C         -0.3887283941        0.0403690119       -0.2397105172
 C          0.0394777417        0.4407442068       -1.5040613664
 C         -0.6655917830        1.3829618699       -2.2252988816
 C         -1.8240658445        1.9372604392       -1.7082983744
 C         -2.2668474145        1.5381738768       -0.4541994104
 C         -1.5542809559        0.5895538341        0.2693721931
 H         -1.9154662155        0.3141605015        1.2454855807
 N         -3.4354407705        2.0893706431        0.0968365934
 S         -4.5707535324        1.0875558511        0.8053886689
 O         -5.7809893890        1.8788693878        0.8409324877
 O         -4.0935809007        0.5992410007        2.0731879149
 C         -4.7503897330       -0.2544844329       -0.3549268805
 C         -4.1236797127       -1.4594831624       -0.1136119897
 C         -4.2157928768       -2.4633667311       -1.0649533329
 C         -4.9262800182       -2.2448273090       -2.2348026054
 C         -5.5549776648       -1.0293709808       -2.4601100801
 C         -5.4643459091       -0.0214320662       -1.5144833126
 H         -5.9475884370        0.9330235565       -1.6470143238
 H         -6.1108811246       -0.8648149892       -3.3690372840
 H         -4.9922799057       -3.0279273807       -2.9735516367
 H         -3.7299761174       -3.4101822659       -0.8901956448
 H         -3.5826534504       -1.5914377419        0.8086603765
 H         -3.8829959405        2.7804223205       -0.4874471143
 H         -2.3730467089        2.6810471116       -2.2655190565
 H         -0.3143439569        1.6888251531       -3.1992152748
 H          0.9451717835        0.0083306753       -1.9070500175
 H          0.4701583255       -1.8989073315       -0.0675293477
 C         -0.0786423145       -1.2765009607        1.9026641707
 C         -1.1139573924       -2.3411484870        2.1012808615
 C          0.2976828301       -2.5764116723        2.5459945629
 H          0.5150014386       -2.5836853937        3.6035694102
 H          0.9085162915       -3.2558840393        1.9695820362
 H         -1.8742587126       -2.1865518867        2.8529673658
 H         -1.4541019963       -2.8725351977        1.2252412535
 H         -0.1159725256       -0.4012684043        2.5422256006
