  62
        -98.94487535
 C          2.6424486910        0.3049428746       -0.0009737343
 C          2.4554785707        1.4219718423       -0.8481990362
 C          1.7825886260        2.5767393722       -0.2460941858
 C          1.3922721107        2.5238817462        1.0407305312
 C          0.6478750239        3.6005925925        1.7818740691
 C         -0.8687777839        3.5524502379        1.5448656911
 C         -1.3280431220        4.0722353049        0.1811074175
 H         -2.4076480293        4.2234841457        0.2441066975
 H         -0.8728100690        5.0447584019       -0.0110423465
 C         -1.0308890351        3.1189752683       -0.9852114042
 H         -0.8382515443        2.1191838714       -0.5867446639
 H         -1.9113089011        3.0466908500       -1.6294798062
 C          0.1376356235        3.5452422408       -1.8747696217
 H         -0.1149430572        4.4762698517       -2.3876470902
 H          0.2902636374        2.7735344302       -2.6340317237
 C          1.4648483043        3.7443342807       -1.1320626818
 H          2.2627337027        3.8232099411       -1.8749669543
 H          1.4363223808        4.6646711521       -0.5496268658
 H         -1.2036262305        2.5190301670        1.6705623734
 H         -1.3418780252        4.1572801654        2.3222084583
 H          0.8372638934        3.4357435091        2.8446307379
 H          1.0355146498        4.5817802197        1.5055152146
 O          1.6425191604        1.4535344960        1.8393886383
 C          2.2178898541        0.3017754043        1.3290691751
 O          2.3181669910       -0.6311521985        2.1499874208
 O          2.8129510893        1.4425109960       -2.0583689745
 C          3.1678398058       -0.9908213457       -0.5972793823
 C          2.0617210711       -2.0132558427       -0.4902946280
 C          2.2218042540       -3.2921532803        0.0249326671
 C          1.1255770966       -4.1205790955        0.2037183900
 C         -0.1507327334       -3.6907023139       -0.1123089638
 C         -0.3133116048       -2.4269732072       -0.6597617040
 C          0.7850421447       -1.6131741914       -0.8662181530
 H          0.6405537885       -0.6206524661       -1.2769458980
 N         -1.6281992172       -1.9349431560       -0.9161369048
 S         -2.1780551846       -1.1349322901        0.4796924974
 O         -1.4249217472        0.0826926134        0.6898365007
 O         -2.1812251854       -2.0891375929        1.5587721649
 C         -3.8544114773       -0.7407599483        0.0162559970
 C         -4.7734962698       -1.7707537720       -0.0423090286
 C         -6.0723884349       -1.4869874486       -0.4318530733
 C         -6.4277164750       -0.1857000421       -0.7558486272
 C         -5.4939386661        0.8370738689       -0.6916727121
 C         -4.1920709338        0.5595050087       -0.3039054656
 H         -3.4336271450        1.3231746174       -0.2347903755
 H         -5.7726729570        1.8479740552       -0.9421042908
 H         -7.4395418007        0.0331932386       -1.0584558447
 H         -6.8018410011       -2.2791340729       -0.4818722957
 H         -4.4513619828       -2.7629453161        0.2259830433
 H         -1.6067258651       -1.2393802344       -1.6536035010
 H         -1.0167483942       -4.3037025826        0.0750325913
 H          1.2665193018       -5.1058054150        0.6217119343
 H          3.2030996953       -3.6321209926        0.3140186847
 H          3.3503433495       -0.7748883931       -1.6605854552
 C          4.4658337457       -1.4225881902        0.0470218265
 C          5.4393168891       -2.2687722294       -0.7168447985
 C          5.7512216318       -0.8290831507       -0.4437021506
 H          6.5175054001       -0.5928478315        0.2790281966
 H          5.6916284864       -0.1266685242       -1.2621608870
 H          5.9965292306       -3.0228105174       -0.1819622884
 H          5.1749558343       -2.5467653731       -1.7258301415
 H          4.3642115072       -1.5883942312        1.1135422181
