  62
        -98.94178395
 C         -2.7833004281       -0.4811845273       -0.2821674584
 C         -2.0920101187        0.4014705726       -1.1477640515
 C         -2.2547667958        1.8362446887       -0.8700830076
 C         -3.0569617814        2.2343492867        0.1324208446
 C         -3.2770888141        3.6592738944        0.5479276347
 C         -2.2921995019        4.0804246835        1.6471136365
 C         -0.8331710810        3.7405842790        1.3403592459
 H         -0.2295548742        4.1264112200        2.1652419560
 H         -0.7020096863        2.6551405565        1.3375622489
 C         -0.3095374507        4.3108513791        0.0151557378
 H          0.6832393079        4.7314675141        0.1877069953
 H         -0.9551007691        5.1234482945       -0.3215793349
 C         -0.1658604030        3.2746332487       -1.1013081090
 H          0.4356755008        3.7170718723       -1.9004100254
 H          0.3778063547        2.4069374277       -0.7160473175
 C         -1.4802145922        2.7935107867       -1.7310902877
 H         -2.0947274183        3.6541065305       -2.0035794139
 H         -1.2331895134        2.2440368913       -2.6440529498
 H         -2.5712966769        3.5759958909        2.5751613518
 H         -2.3898727983        5.1565935289        1.8024549007
 H         -3.1668846457        4.3059788542       -0.3203143594
 H         -4.2947626563        3.7505002314        0.9316872834
 O         -3.7415038586        1.3622022997        0.9156440369
 C         -3.5947055151       -0.0030195385        0.7522456162
 O         -4.2441568570       -0.6857948351        1.5701609528
 H         -0.1299433106       -1.4420989731       -1.1411514463
 C         -0.1438856445       -1.9948177169       -0.2135347751
 C         -1.3597514621       -2.3931514534        0.3235227822
 C         -1.3549857946       -3.0818329777        1.5307421944
 C         -0.1650507730       -3.3491985521        2.1865087160
 C          1.0420899918       -2.9202755288        1.6628303317
 C          1.0439755813       -2.2334263449        0.4571266616
 N          2.2671061382       -1.7252763876       -0.0592081235
 S          2.7332773563       -0.3316482845        0.7890764754
 O          3.0245081811       -0.7163472879        2.1472252296
 O          1.7467641062        0.7136959781        0.6221438333
 C          4.2427239066        0.0938033740       -0.0572117648
 C          4.2455675976        1.1251140384       -0.9758013866
 C          5.4212075855        1.4175317955       -1.6499511672
 C          6.5643079353        0.6742649496       -1.3981741699
 C          6.5442325387       -0.3602139722       -0.4741412760
 C          5.3732591362       -0.6562202578        0.2045601966
 H          5.3101944232       -1.4448935358        0.9355703865
 H          7.4355630088       -0.9350169782       -0.2811058436
 H          7.4769541168        0.9037490777       -1.9251715836
 H          5.4393527201        2.2217748137       -2.3678124021
 H          3.3337820299        1.6786316372       -1.1366926700
 H          2.1425303339       -1.4481349560       -1.0267670484
 H          1.9710890808       -3.0820754344        2.1842659809
 H         -0.1795891489       -3.8820710975        3.1253708038
 H         -2.2960158904       -3.3821664799        1.9691167240
 C         -2.6519148894       -1.9977636546       -0.3508856544
 H         -3.4812964668       -2.3973738685        0.2475447259
 C         -2.7583018900       -2.5583197271       -1.7545290745
 C         -3.1013678673       -4.0060786472       -1.9299371907
 C         -4.1029529889       -2.9495976600       -2.2857407333
 H         -4.3164661591       -2.7677259011       -3.3282489476
 H         -4.9553711737       -2.8141362638       -1.6358230109
 H         -2.6260449010       -4.5542132756       -2.7287193663
 H         -3.2760192939       -4.5894675985       -1.0385248422
 H         -2.0603652508       -2.1160955452       -2.4523536334
 O         -1.3693316454        0.0381057554       -2.1153931773
