  62
        -98.94076320
 C         -1.1430109094       -1.3569852303        0.1279485292
 C         -1.5456960600       -0.3864546310        1.0752750896
 C         -2.4194774106        0.6924960987        0.5866093300
 C         -2.7271514606        0.7359683991       -0.7213322700
 C         -3.6517584611        1.6966875789       -1.4173214397
 C         -5.0762260407        1.1197678881       -1.4895846200
 C         -5.9562583010        1.4310550270       -0.2797473499
 H         -6.2120417816        2.4927384169       -0.2856374295
 H         -6.8859644607        0.8703740265       -0.4011311802
 C         -5.3463708409        1.0815609468        1.0803098000
 H         -6.1627206209        0.9945321360        1.8000374799
 H         -4.8599590403        0.1059168771        1.0251735796
 C         -4.3484265815        2.1344654472        1.5854914905
 H         -4.4385644720        3.0334322274        0.9763548009
 H         -4.6143763418        2.4244536566        2.6041488806
 C         -2.8830607313        1.6775111380        1.6244673704
 H         -2.6819917610        1.1869951777        2.5820430702
 H         -2.2315186118        2.5564130684        1.5841137608
 H         -5.5711583909        1.5170207282       -2.3780820999
 H         -4.9955854601        0.0373113082       -1.6177671705
 H         -3.6518264617        2.6650274287       -0.9259653892
 H         -3.2734177911        1.8136426595       -2.4349271896
 O         -2.2459046400       -0.1689628402       -1.6156140804
 C         -1.4464480894       -1.2304276099       -1.2276892908
 O         -1.0841592489       -1.9628861893       -2.1664204011
 O         -1.1992169401       -0.4272398513        2.2877590396
 C         -0.2868311287       -2.5178999300        0.6092339587
 C          1.1320945211       -2.2639236190        0.1670686389
 C          1.7375898316       -2.9190293082       -0.8966541313
 C          3.0219049014       -2.5784902173       -1.2881933211
 C          3.7285515008       -1.5898208772       -0.6272805006
 C          3.1301030303       -0.9312012780        0.4394480696
 C          1.8437545105       -1.2686367489        0.8278907194
 H          1.3714335502       -0.7460223295        1.6500669796
 N          3.8417084597        0.0909184922        1.1112107801
 S          4.0658841489        1.5027282527        0.2410524107
 O          4.8113853392        1.1970321436       -0.9521337393
 O          4.6736868183        2.4390430826        1.1579325112
 C          2.4241001186        2.0549714719       -0.1868547391
 C          1.7663757691        1.4484013220       -1.2386595394
 C          0.4772495988        1.8539958213       -1.5432569393
 C         -0.1281551418        2.8525761107       -0.7963004389
 C          0.5429616978        3.4458094706        0.2615582814
 C          1.8295878580        3.0400747512        0.5756788413
 H          2.3898783577        3.4777264312        1.3863800915
 H          0.0684610073        4.2219733801        0.8405349617
 H         -1.1286520620        3.1684596002       -1.0443725689
 H         -0.0509394708        1.3818740014       -2.3570967896
 H          2.2662748895        0.6800626125       -1.8063976597
 H          3.4349944495        0.3255510615        2.0067839702
 H          4.7215942307       -1.3028212264       -0.9322697904
 H          3.4788377718       -3.0911617667       -2.1211020813
 H          1.1968323721       -3.6822317883       -1.4311973117
 H         -0.3104109788       -2.4588022205        1.7062670288
 C         -0.8386181479       -3.8604986702        0.1835899281
 C         -0.3590303272       -5.1001416202        0.8758565276
 C         -1.7521947875       -4.6015753611        1.1115925277
 H         -2.5773043272       -5.1548950514        0.6887442375
 H         -1.9770904579       -4.1448293017        2.0644713679
 H         -0.2262299767       -5.9987023099        0.2931741072
 H          0.3639753726       -4.9796102701        1.6684693077
 H         -1.0552685478       -3.9208799898       -0.8755401919
