  62
        -98.93802658
 C          2.3436865201        0.1043029596        0.5037693904
 C          3.3238261801        0.6551126202       -0.3580663092
 C          4.3811858303       -0.2688866194       -0.7929100896
 C          4.3530223804       -1.5576020497       -0.4109021604
 C          5.3468456605       -2.6202318293       -0.7941477410
 C          6.6081837404       -2.6401024497        0.0804405191
 C          7.5829153203       -1.4854837095       -0.1550973600
 H          7.8086964004       -1.4133429888       -1.2194785400
 H          8.5119973603       -1.7413796297        0.3581911499
 C          7.0922067801       -0.1261449998        0.3624554207
 H          7.8986158300        0.3680624799        0.9089979411
 H          6.2736394101       -0.2792322904        1.0694743606
 C          6.6279954801        0.8378040008       -0.7294040387
 H          7.4738460102        1.1049113013       -1.3668072285
 H          6.2663723000        1.7507777804       -0.2496160282
 C          5.5019181603        0.2910681912       -1.6163402792
 H          5.8916357305       -0.4673087783       -2.2949187396
 H          5.0990591403        1.1167576515       -2.2079298687
 H          7.1318521405       -3.5765312395       -0.1253652814
 H          6.3052815903       -2.6526234504        1.1299815091
 H          4.8350258106       -3.5785139094       -0.6822242116
 H          5.6296127506       -2.4978787086       -1.8401049109
 O          3.3687199103       -2.0603096102        0.3810035091
 C          2.3611409202       -1.2461822106        0.8662083195
 O          1.5445715202       -1.8333535512        1.6056019591
 H         -1.1870206299       -0.3214677411        1.0614199097
 C         -1.0847554099        0.3452569994        0.2150812901
 C          0.0917493000        1.0647915796        0.0595381507
 C          0.2204175001        1.9032704903       -1.0422629388
 C         -0.8078603398        2.0120314408       -1.9608611188
 C         -1.9791068598        1.2923237305       -1.8040270694
 C         -2.1161289198        0.4484897699       -0.7100361299
 N         -3.2949854398       -0.3056343104       -0.5547704105
 S         -4.7571440998        0.5087774796       -0.7956375402
 O         -5.0172729597        0.5702855605       -2.2119710502
 O         -4.7358807500        1.7773343492       -0.1021171694
 C         -5.9108453098       -0.6047819710       -0.0189471210
 C         -6.2983306500       -0.3721207618        1.2870638591
 C         -7.1835990899       -1.2515940023        1.8902266584
 C         -7.6612564097       -2.3439575219        1.1818837177
 C         -7.2628569896       -2.5641362010       -0.1283574824
 C         -6.3789827796       -1.6880983306       -0.7379841117
 H         -6.0502775895       -1.8133153099       -1.7564244018
 H         -7.6389332994       -3.4130191507       -0.6761990629
 H         -8.3511060097       -3.0260559622        1.6532115472
 H         -7.4976419201       -1.0812773529        2.9074738885
 H         -5.9099205701        0.4955525079        1.7960480897
 H         -3.3051995798       -0.8156674109        0.3182273792
 H         -2.7891441097        1.3765160409       -2.5105508594
 H         -0.6968524098        2.6664421513       -2.8126592884
 H          1.1392095600        2.4504178605       -1.1836418583
 C          1.1949205299        0.9175034091        1.0810726407
 H          0.7994659799        0.3168213585        1.9112946603
 C          1.6328617197        2.2597141788        1.6327800816
 C          0.7399182695        2.9661725481        2.6061143919
 C          2.0305272596        2.3638708680        3.0729561117
 H          2.8436655995        3.0235512679        3.3360846222
 H          1.9872734796        1.4648749376        3.6709390912
 H         -0.1804903204        2.4760656478        2.8865783015
 H          0.6635418594        4.0410379681        2.5484359426
 H          2.1820057697        2.8628584593        0.9228505120
 O          3.3409129900        1.8490157505       -0.7560990885
