  62
        -98.93750392
 C         -1.7780750050       -0.4158314871        0.3208236780
 C         -2.9329662593       -0.4787783037        1.1309931058
 C         -4.2318328184       -0.5733832012        0.4362597137
 C         -4.2435600998       -0.5985806444       -0.9098106899
 C         -5.4361560138       -0.6499510652       -1.8272886792
 C         -6.1555537084        0.7042600854       -1.9406172504
 C         -6.3470257437        1.4447253661       -0.6194696941
 H         -6.7565030093        2.4322444810       -0.8483972558
 H         -5.3733041719        1.5995667157       -0.1510070619
 C         -7.2875183913        0.7692185464        0.3756613682
 H         -8.2737234358        0.6602719323       -0.0812561721
 H         -7.3911552941        1.4408356415        1.2319113463
 C         -6.8404921978       -0.5982386856        0.8959941067
 H         -7.0132436647       -1.3743740311        0.1554093611
 H         -7.4734187473       -0.8422415626        1.7543311679
 C         -5.3985763091       -0.6525225491        1.3913828631
 H         -5.2581897978       -1.5856201719        1.9506672394
 H         -5.2414784001        0.1469926986        2.1246100162
 H         -7.1257197253        0.5415293254       -2.4129854067
 H         -5.5634957553        1.3461241503       -2.5975221890
 H         -6.1214030692       -1.4280401369       -1.5043717024
 H         -5.0600469409       -0.9265405559       -2.8146064816
 O         -3.1004080728       -0.5355223137       -1.6512831310
 C         -1.8489137698       -0.4433958797       -1.0713678662
 O         -0.9040011172       -0.3965253010       -1.8809144711
 O         -2.8894637540       -0.4475175563        2.3917271848
 C         -0.4162407227       -0.3190716997        0.9813380537
 C          0.3103862751        0.9232329589        0.5292110760
 C         -0.3835452430        2.1288299245        0.4582461589
 C          0.2479163670        3.2857011337        0.0470043904
 C          1.5917751574        3.2713351840       -0.2835922545
 C          2.2984388956        2.0788859562       -0.2008191751
 C          1.6567719188        0.9144236098        0.2003440359
 H          2.2239866887        0.0006749069        0.2578298485
 N          3.6582522633        2.0267718321       -0.5385992995
 S          4.7125397403        1.0967838714        0.3659895555
 O          4.3297178018        1.0568000987        1.7579709086
 O          6.0197910430        1.6528497342        0.0859813891
 C          4.6230141351       -0.5331806127       -0.3443307897
 C          4.4647294941       -0.6681563402       -1.7092365986
 C          4.4419226613       -1.9409942078       -2.2566265354
 C          4.5860854597       -3.0505351047       -1.4375083389
 C          4.7507045646       -2.8978365149       -0.0696221622
 C          4.7696015783       -1.6275069218        0.4849923229
 H          4.8827407762       -1.4632758566        1.5448814965
 H          4.8620868924       -3.7618422090        0.5663710365
 H          4.5681288243       -4.0397501567       -1.8672139382
 H          4.3099760658       -2.0634630350       -3.3196687039
 H          4.3506140706        0.2136453492       -2.3173035053
 H          4.0683254735        2.9106926520       -0.8022829837
 H          2.0879412261        4.1748772063       -0.6041600973
 H         -0.3075568462        4.2098228234       -0.0110941489
 H         -1.4317137820        2.1445044906        0.7247405913
 H         -0.6187471465       -0.2200688109        2.0588766725
 C          0.3655664287       -1.5954170834        0.7492380942
 C          1.3668911612       -2.0685934500        1.7587641009
 C          0.0640702240       -2.7914107440        1.6000121812
 H          0.0678888978       -3.7671346644        1.1382649985
 H         -0.6855900422       -2.6745089778        2.3690511459
 H          2.2653407141       -2.5490838061        1.4020299274
 H          1.5129147046       -1.4634613574        2.6411118103
 H          0.5765091569       -1.7667140068       -0.3006950838
