  62
        -98.94435328
 C          2.3326700103        1.1586001391        0.2606891811
 C          2.3070759901       -0.0822024604       -0.4216832598
 C          3.2224753998       -1.1105971809        0.0908023897
 C          3.9974747697       -0.8512222918        1.1589745099
 C          4.9588469394       -1.8067012025        1.8121894394
 C          6.3336365195       -1.8745346923        1.1330591896
 C          6.3596972496       -2.5972897214       -0.2142799809
 H          7.4084198196       -2.7634319314       -0.4683183809
 H          5.8911402993       -3.5763367713       -0.1092921617
 C          5.6912674299       -1.8249281204       -1.3601285205
 H          5.5825742201       -0.7753834506       -1.0775175498
 H          6.3338508700       -1.8543444300       -2.2428813204
 C          4.3243653898       -2.3674686799       -1.7776605011
 H          3.9268020401       -1.7259942392       -2.5682748507
 H          4.4376583497       -3.3739775896       -2.1866631417
 C          3.2921645597       -2.4156869004       -0.6434949412
 H          3.5272101294       -3.2271914410        0.0451531882
 H          2.3074361697       -2.6042333399       -1.0794791915
 H          6.7120757397       -0.8574920823        1.0083893703
 H          7.0070399593       -2.3987796929        1.8149128293
 H          4.5177442992       -2.8034481124        1.8451423487
 H          5.0977551094       -1.4541221332        2.8364299797
 O          3.9768059799        0.3468590178        1.8007948508
 C          3.1541502502        1.3732387382        1.3708530613
 O          3.2424971703        2.4163321677        2.0486465421
 O          1.5689217102       -0.3338647396       -1.4109120200
 C          1.4198697006        2.3086288096       -0.1393567882
 C          0.0089102804        1.9145191296        0.2237368613
 C         -0.4392134997        2.1125858288        1.5267930414
 C         -1.6948441999        1.6835685988        1.9137381309
 C         -2.5242639999        1.0351721996        1.0146729903
 C         -2.0793490297        0.8187473204       -0.2817530898
 C         -0.8294577296        1.2765982404       -0.6768714693
 H         -0.4917511095        1.0885837711       -1.6835614393
 N         -2.9057806397        0.1367769312       -1.1942015303
 S         -3.5300335701       -1.3443016990       -0.7015149714
 O         -2.6898341504       -1.9804879698        0.2868816782
 O         -3.7653406901       -2.0844416381       -1.9224793520
 C         -5.1026900101       -0.9166012792        0.0187052386
 C         -5.4005757304       -1.3125028500        1.3078387183
 C         -6.6348141004       -0.9786902801        1.8437298684
 C         -7.5449846701       -0.2596080494        1.0843872588
 C         -7.2317664599        0.1280624914       -0.2100090609
 C         -6.0001186699       -0.2031226584       -0.7516545810
 H         -5.7191799397        0.0747422422       -1.7536639608
 H         -7.9424336497        0.6866985820       -0.7974684907
 H         -8.5042896601       -0.0006551595        1.5038507388
 H         -6.8798543506       -1.2802620107        2.8495144981
 H         -4.6591007506       -1.8659730905        1.8620707881
 H         -2.4882101496        0.0462919118       -2.1101283703
 H         -3.4984677700        0.6836027896        1.3130636800
 H         -2.0299700400        1.8484002482        2.9265256810
 H          0.2205385903        2.5917629082        2.2369880218
 H          1.7103964706        3.1569385591        0.4940643324
 C          1.5955045508        2.7033019406       -1.5905945280
 C          1.0383329912        4.0114760910       -2.0632173671
 C          2.5201912911        3.8306100906       -1.9341699471
 H          3.1119700412        3.7542452711       -2.8341115570
 H          3.0277324111        4.3266585399       -1.1196862166
 H          0.6109640513        4.0636995418       -3.0528470672
 H          0.5383385312        4.6305680406       -1.3338657768
 H          1.5695262608        1.8636802710       -2.2735312685
