  62
        -98.94191842
 C          1.2889650482        1.3796832251        0.7299952770
 C          1.8617439751        1.1133244843       -0.5383642134
 C          2.8042940863       -0.0158451197       -0.5907628092
 C          3.0156831085       -0.7559457156        0.5117193754
 C          3.9343707975       -1.9403305849        0.5875122302
 C          3.1994064079       -3.2498569774        0.2726629451
 C          2.3521677580       -3.1949871648       -0.9981930561
 H          1.9097855634       -4.1830649105       -1.1367123159
 H          1.5290554625       -2.4922402046       -0.8489543949
 C          3.1279594678       -2.8064889357       -2.2642600922
 H          2.8295732245       -3.4733358593       -3.0757212832
 H          4.1973254360       -2.9497439595       -2.1044369033
 C          2.8762075900       -1.3777091499       -2.7487217379
 H          1.8005060145       -1.1947990832       -2.8134975926
 H          3.2853524453       -1.2834702483       -3.7582393834
 C          3.5026345132       -0.2660932960       -1.8978549626
 H          4.5611466046       -0.4798340602       -1.7342230102
 H          3.4240983580        0.6673313827       -2.4630446180
 H          2.5427855303       -3.4838538102        1.1126136957
 H          3.9403236736       -4.0465814985        0.1851512736
 H          4.3383961555       -1.9950368251        1.5999951230
 H          4.7561389845       -1.7954323614       -0.1114570659
 O          2.3790174234       -0.5238389177        1.6887262184
 C          1.5040795413        0.5411975076        1.8262558775
 O          0.9827849365        0.6301563986        2.9564838228
 O          1.6201473159        1.7811275255       -1.5760194499
 C          0.3202073871        2.5311254747        0.9372330730
 C         -0.7331284967        2.5060717256       -0.1428903270
 C         -0.9748956308        3.5490481339       -1.0257957669
 C         -1.9705204618        3.4344663665       -1.9807276907
 C         -2.7559369095        2.2991525446       -2.0577267284
 C         -2.5218748539        1.2489339822       -1.1763782396
 C         -1.5082691309        1.3570800661       -0.2405246911
 H         -1.3174391283        0.5374247683        0.4364140696
 N         -3.2897166077        0.0757341046       -1.2239700842
 S         -3.7143201369       -0.7118236274        0.1908671076
 O         -4.9219743768       -1.4335452759       -0.1511815346
 O         -3.8150277304        0.2058445421        1.3008723011
 C         -2.4144492012       -1.8973431750        0.4648073152
 C         -2.2727428418       -2.9206192012       -0.4524658156
 C         -1.3012970961       -3.8838028792       -0.2380197970
 C         -0.4886296051       -3.8075093759        0.8834271538
 C         -0.6350328774       -2.7691934480        1.7895155240
 C         -1.6107248466       -1.8063009653        1.5832460865
 H         -1.7511990332       -0.9899299220        2.2759110752
 H          0.0044402135       -2.6929648849        2.6553215778
 H          0.2613876350       -4.5635153136        1.0544375336
 H         -1.1799901424       -4.6909584408       -0.9421602095
 H         -2.9323957172       -2.9505872869       -1.3036247122
 H         -4.0486857555        0.0895742707       -1.8893980216
 H         -3.5391792863        2.2187977831       -2.7963190258
 H         -2.1432365534        4.2464491827       -2.6709638418
 H         -0.3703877977        4.4400511241       -0.9827265346
 H         -0.1883985103        2.3049127347        1.8900447207
 C          0.9782214437        3.8904645179        1.1177357814
 C          2.3540804763        4.0077793333        1.7016315664
 C          2.1161790379        4.3639374178        0.2664469021
 H          2.1444040749        5.4077566021       -0.0108946729
 H          2.4795094647        3.6984422243       -0.4994997879
 H          2.5463652339        4.8020414667        2.4073339838
 H          2.8821895517        3.0909005369        1.9211780642
 H          0.2604153688        4.6429742386        1.4310932660
