  62
        -98.94386441
 C         -1.6647642612       -1.4320335182        0.5640464981
 C         -2.6544603056       -1.0636837780       -0.3799268737
 C         -3.4817739672        0.0987364270       -0.0159489406
 C         -3.2046379219        0.7908757457        1.1030307776
 C         -3.9274183470        2.0273925842        1.5516467747
 C         -3.2761577403        3.3002481928        0.9926589409
 C         -3.0056937670        3.2485515659       -0.5108706971
 H         -2.5778048841        4.2118668882       -0.7970135581
 H         -2.2540424921        2.4822001655       -0.7132246366
 C         -4.2464653145        2.9730515878       -1.3711216584
 H         -5.1511424326        3.1715554493       -0.7951206480
 H         -4.2455541723        3.6610776569       -2.2190858736
 C         -4.3118365381        1.5573103332       -1.9456672938
 H         -3.3689553320        1.3185540374       -2.4436765998
 H         -5.0981969207        1.5336921189       -2.7048665854
 C         -4.6190992170        0.4445731185       -0.9361024648
 H         -5.5097846346        0.7062968170       -0.3608572574
 H         -4.8325320092       -0.4657833500       -1.5037634378
 H         -3.9284206409        4.1460075921        1.2181154955
 H         -2.3265064135        3.4599391072        1.5083830579
 H         -4.9652863414        1.9683550680        1.2289220045
 H         -3.8993420803        2.0644494967        2.6421567576
 O         -2.1894426431        0.4579226784        1.9415665501
 C         -1.4121179862       -0.6610396268        1.7029049747
 O         -0.5328832200       -0.8650104087        2.5646137192
 O         -2.8623952445       -1.6569789396       -1.4695246899
 C         -0.7331146161       -2.6227469757        0.3799119793
 C          0.4718303089       -2.1268518844       -0.3808322697
 C          0.4125408182       -1.8137549038       -1.7347938915
 C          1.5084642429       -1.2607622218       -2.3725663710
 C          2.6756755329       -0.9954417403       -1.6761512852
 C          2.7397195405       -1.3005723335       -0.3235240417
 C          1.6471018832       -1.8737730981        0.3109273801
 H          1.6942824713       -2.0888361658        1.3698678983
 N          3.9050692740       -0.9934031170        0.4053204821
 S          4.4662961105        0.5772024080        0.2571884432
 O          5.2867394699        0.6818354845       -0.9239874593
 O          5.1313213683        0.8687098639        1.5080626381
 C          3.0151235527        1.6011532490        0.0645224230
 C          1.9892345896        1.4886643623        0.9821371681
 C          0.8642396285        2.2824764464        0.8300159329
 C          0.7876434607        3.1794006406       -0.2240198187
 C          1.8268167837        3.2824705377       -1.1355759694
 C          2.9497444556        2.4833298640       -0.9948918361
 H          3.7764068396        2.5234259318       -1.6854644291
 H          1.7624044080        3.9796104303       -1.9553205535
 H         -0.0878033807        3.7994742619       -0.3338710026
 H          0.0521456619        2.1824092572        1.5337893560
 H          2.0583061904        0.7888576561        1.7999932842
 H          3.8458166545       -1.2527050892        1.3799265474
 H          3.5315814281       -0.5469821673       -2.1545170695
 H          1.4510826178       -1.0205253687       -3.4232304411
 H         -0.5083685974       -1.9787648557       -2.2725024157
 H         -0.3975718265       -2.8985033358        1.3890662740
 C         -1.3744017396       -3.8381977743       -0.2524830098
 C         -0.7016064171       -5.1672920161       -0.0916828116
 C         -1.9836253313       -4.8835092625        0.6306430421
 H         -2.8851642463       -5.3756550446        0.2983103690
 H         -1.9429477607       -4.7252942871        1.6988534481
 H         -0.7200485837       -5.8571740242       -0.9211743385
 H          0.2095825395       -5.2012235365        0.4868746794
 H         -1.8722931141       -3.6358210116       -1.1901582155
