  62
        -98.92878163
 C          2.1838957269        0.8227785444        0.6950567856
 C          2.5582596516        0.4671890395       -0.6234719527
 C          3.4224721960       -0.7237064253       -0.7575346211
 C          3.7474266102       -1.4305554124        0.3371373814
 C          4.6502018676       -2.6299445786        0.4235461657
 C          6.0906186289       -2.2026516964        0.7535760434
 C          6.9514932292       -1.8486231795       -0.4584578860
 H          7.8922686756       -1.4418980722       -0.0804505671
 H          7.1871618602       -2.7616710728       -1.0091731162
 C          6.3331391819       -0.8383228697       -1.4282587358
 H          5.8615483899       -0.0300988670       -0.8664811767
 H          7.1429422592       -0.3968498310       -2.0122528977
 C          5.3149321843       -1.4694389542       -2.3896497846
 H          5.4019578011       -2.5546329113       -2.3385436967
 H          5.5631635581       -1.1873965977       -3.4148805146
 C          3.8531079565       -1.0573865799       -2.1599882875
 H          3.6338796491       -0.1546418320       -2.7386379265
 H          3.1942924435       -1.8418206787       -2.5477698798
 H          6.0383185637       -1.3468106644        1.4315754684
 H          6.5821096400       -3.0156232237        1.2918704452
 H          4.2723608785       -3.2449752897        1.2431833887
 H          4.6109951310       -3.2089568329       -0.4943423792
 O          3.3071612857       -1.0922179629        1.5813960942
 C          2.5241686749        0.0248958443        1.7895850127
 O          2.1931603900        0.2010686825        2.9818845739
 O          2.2092176004        1.1003105261       -1.6498686390
 C          1.3127763752        2.0379040102        1.0011468702
 C         -0.0370024399        1.8234997289        0.3608541658
 C         -0.4245815311        2.2499021728       -0.9033709743
 C         -1.6728856039        1.9197081540       -1.4047553487
 C         -2.5605979453        1.1542661494       -0.6722906373
 C         -2.1784334740        0.7016560966        0.5834485362
 C         -0.9343822293        1.0446466839        1.0873006385
 H         -0.6369888650        0.6772315013        2.0624050223
 N         -3.0652333597       -0.0916331010        1.3373836577
 S         -3.6632456212       -1.4780788844        0.5974513982
 O         -3.9907466166       -2.3775673812        1.6827001865
 O         -2.7485722641       -1.9816757763       -0.4018000482
 C         -5.1719261628       -0.9250726747       -0.1700821150
 C         -5.3598352388       -1.0977040568       -1.5273360845
 C         -6.5446921045       -0.6616005517       -2.1001649718
 C         -7.5148283390       -0.0646049485       -1.3097651287
 C         -7.3114828199        0.0988140225        0.0525760939
 C         -6.1300949963       -0.3358722590        0.6316543054
 H         -5.9335440871       -0.2320029289        1.6856456977
 H         -8.0682079786        0.5633816279        0.6639297288
 H         -8.4349533879        0.2752253124       -1.7582987775
 H         -6.7044277558       -0.7882225110       -3.1589196200
 H         -4.5742710042       -1.5614843130       -2.1026488051
 H         -2.7134943699       -0.3155433813        2.2578361181
 H         -3.5297354772        0.8938119787       -1.0652729384
 H         -1.9537056221        2.2619401700       -2.3892578272
 H          0.2541129403        2.8084273127       -1.5217925244
 H          1.1452984565        1.9768052663        2.0877347386
 C          2.0567443939        3.3510821171        0.7997153501
 C          2.4346655196        3.9739636175       -0.5091089344
 C          1.3948161709        4.6208059831        0.3544861017
 H          1.6536705588        5.5358438611        0.8662076850
 H          0.3633419868        4.5671450617        0.0443091651
 H          3.4089470831        4.4390089355       -0.5678520007
 H          2.1498300039        3.4742302643       -1.4191750396
 H          2.8038450081        3.4583814584        1.5834743142
