  62
        -98.93667146
 C         -1.3430465861       -1.5222492641        0.3030212666
 C         -1.8824545134       -1.0259938140       -0.9071577935
 C         -2.8575104179        0.0769515355       -0.7863860306
 C         -3.1822748102        0.5296523563        0.4385888203
 C         -4.0995459985        1.6776990195        0.7553253765
 C         -3.4178899240        3.0501977898        0.5651787096
 C         -2.3600584162        3.1061841059       -0.5378954393
 H         -1.7923295723        4.0324467762       -0.4154993865
 H         -1.6575666203        2.2809219760       -0.4018077336
 C         -2.9087860606        3.0873579856       -1.9649214810
 H         -3.3909267525        4.0472886438       -2.1670185618
 H         -2.0629664453        2.9914441323       -2.6509607577
 C         -3.9221218919        1.9877497375       -2.2743519196
 H         -4.8274614148        2.1494068010       -1.6949749302
 H         -4.2027966991        2.0878957218       -3.3272761444
 C         -3.4174998563        0.5549600554       -2.1029161425
 H         -4.2344677254       -0.1280975213       -2.3677847839
 H         -2.6249126948        0.3673725025       -2.8360042034
 H         -2.9250114757        3.3081516273        1.5043310338
 H         -4.1845582242        3.8016054771        0.3724851936
 H         -4.9979918598        1.5933221065        0.1492676710
 H         -4.3930387636        1.5748663966        1.8016397937
 O         -2.6508565845        0.0120957486        1.5787402285
 C         -1.7355037768       -1.0227259742        1.5455265939
 O         -1.3510038127       -1.4091279566        2.6663214420
 H          0.4640682270       -0.1885675623       -0.6791806704
 C          1.2577112972       -0.9229167968       -0.7121724534
 C          1.0217548299       -2.2133513847       -0.2656874014
 C          2.0730245959       -3.1254576989       -0.3173481346
 C          3.3172642836       -2.7521455966       -0.7915692538
 C          3.5444822719       -1.4610248984       -1.2375933433
 C          2.5002716859       -0.5511740482       -1.2075588645
 N          2.7328383622        0.7804979434       -1.6404368118
 S          3.4240029268        1.7440321711       -0.4555385174
 O          3.4805969727        3.0800952396       -1.0022598278
 O          4.6777803329        1.1512687974       -0.0688410542
 C          2.2632446035        1.6831442577        0.8968742383
 C          2.3114025579        0.6155057924        1.7717581496
 C          1.3376898993        0.5099477334        2.7517988316
 C          0.3390020090        1.4672228460        2.8398982152
 C          0.3078199658        2.5353517442        1.9570868094
 C          1.2721540275        2.6412190043        0.9677965300
 H          1.2794690162        3.4524518886        0.2570275176
 H         -0.4688005652        3.2796462858        2.0310692492
 H         -0.4258855292        1.3639724093        3.5934941431
 H          1.3395835057       -0.3274333066        3.4306374255
 H          3.1052031681       -0.1076907566        1.6743646449
 H          1.8924191446        1.2342196309       -1.9723798329
 H          4.5098653934       -1.1428708195       -1.5950703716
 H          4.1205871385       -3.4723183333       -0.8138841644
 H          1.9107466955       -4.1350972554        0.0252783415
 C         -0.3127551589       -2.6308055839        0.3116742971
 H         -0.1491611538       -2.8751710569        1.3717771058
 C         -0.8393999815       -3.8723602668       -0.3898074797
 C         -0.5807742141       -5.2371842164        0.1709789874
 C         -1.9549222841       -4.6451355030        0.2458969002
 H         -2.7323933144       -5.0455195369       -0.3870423493
 H         -2.3092073781       -4.3005877409        1.2070857078
 H         -0.4093802133       -6.0514799761       -0.5165565530
 H         -0.0221980320       -5.3095003745        1.0923120522
 H         -0.8663241714       -3.7620819490       -1.4672288946
 O         -1.5556748993       -1.4577501362       -2.0447556097
