  62
        -98.94526437
 C         -1.4846367287       -0.7602280088       -0.5294024523
 C         -2.6390001820       -1.0509799758        0.2442224800
 C         -3.4225990067        0.0963207402        0.7161770303
 C         -2.9969234578        1.3400296724        0.4307446526
 C         -3.7118181817        2.6025805351        0.8150104851
 C         -4.6855385368        3.0488306054       -0.2847053693
 C         -5.6022881640        1.9329360633       -0.7860299321
 H         -6.2644599721        2.3689459686       -1.5370861689
 H         -4.9975241212        1.1757643443       -1.2901006629
 C         -6.4428188934        1.2620285365        0.3093132770
 H         -7.4677350025        1.1551178947       -0.0520500882
 H         -6.4758530187        1.8995237906        1.1935500767
 C         -5.9643144970       -0.1346320504        0.7104347664
 H         -5.8383535852       -0.7496684664       -0.1840832890
 H         -6.7441147399       -0.5990289162        1.3198715631
 C         -4.6612930393       -0.1883672214        1.5183743061
 H         -4.7294602686        0.4872622935        2.3738109247
 H         -4.5449655793       -1.2086026927        1.8958013977
 H         -5.2884465863        3.8725515455        0.1019063908
 H         -4.1037516649        3.4209622751       -1.1310810312
 H         -4.2491131513        2.4384174392        1.7472737166
 H         -2.9657626349        3.3840377689        0.9708331730
 O         -1.8791618595        1.5846911654       -0.2937399350
 C         -1.0947456557        0.5531589754       -0.7917709145
 O         -0.1160813014        0.9566574071       -1.4491556894
 H          1.3881307035       -0.4123047826       -0.1563782414
 C          1.3707565105       -1.3642992627        0.3469866882
 C          0.3823610923       -2.2879315896        0.0329428646
 C          0.3640461138       -3.5066314785        0.6998899905
 C          1.3063056126       -3.7880395081        1.6730647696
 C          2.2687017987       -2.8540879224        2.0068004970
 C          2.2972940950       -1.6299247780        1.3441802457
 N          3.2737400776       -0.6820747670        1.6697017736
 S          3.0407814066        0.9727286691        1.5460270351
 O          3.8940552927        1.5198909607        2.5828811963
 O          1.6446370806        1.3293350343        1.6220961787
 C          3.7637791670        1.3696396209       -0.0317726894
 C          2.9817849211        1.7182575387       -1.1128223302
 C          3.6037815391        2.0038840371       -2.3199816524
 C          4.9837631744        1.9390598824       -2.4245856106
 C          5.7556252825        1.5895783924       -1.3260579498
 C          5.1421830323        1.3019714765       -0.1188987478
 H          5.7032298497        1.0396940143        0.7626032373
 H          6.8294606474        1.5409606088       -1.4083975365
 H          5.4591468675        2.1632789391       -3.3666053886
 H          2.9972590575        2.2724829486       -3.1703593913
 H          1.9074689863        1.7529224086       -1.0145866349
 H          3.8488767495       -0.9197877914        2.4639730772
 H          2.9922639846       -3.0630412439        2.7801687368
 H          1.2818548666       -4.7368911556        2.1872642598
 H         -0.4090310102       -4.2242554046        0.4681491669
 C         -0.6742310843       -1.9590868820       -0.9962693340
 H         -1.3858172684       -2.7963774751       -1.0159134818
 C         -0.0666772015       -1.8172780458       -2.3764036814
 C          0.2850792496       -3.0569482056       -3.1413298756
 C         -0.8723021121       -2.2102601279       -3.5767451198
 H         -0.7757639494       -1.6204326675       -4.4756784174
 H         -1.8712340681       -2.5855812853       -3.4074869818
 H          0.0700256467       -4.0084816828       -2.6791103527
 H          1.1807371213       -3.0521515118       -3.7428898518
 H          0.5867923101       -0.9613716096       -2.4768176678
 O         -3.0018921480       -2.2267744150        0.5201864685
