  62
        -98.93066243
 C         -1.9965224223       -1.5991302827        0.0013030261
 C         -1.6766709497       -0.3196681258       -0.5045312443
 C         -2.8024265146        0.6210406681       -0.6728021272
 C         -4.0543540539        0.2158280186       -0.3916445077
 C         -5.3873742701        0.9254143453       -0.5117590314
 C         -5.4503531030        2.4313542266       -0.7518678910
 C         -4.9763590620        3.2855719720        0.4246304770
 H         -4.9359755802        4.3269193514        0.0982816500
 H         -5.7203305158        3.2162754451        1.2222870595
 C         -3.6270190792        2.8972831826        1.0239435773
 H         -3.4369231692        3.5579358065        1.8741779471
 H         -3.6794414849        1.8789746567        1.4144455990
 C         -2.4322202049        3.0044136687        0.0789039451
 H         -2.3704454939        4.0184479675       -0.3214382332
 H         -1.5323438249        2.8168767141        0.6716141660
 C         -2.4289413076        2.0127397802       -1.0960379675
 H         -3.0659547767        2.3581094569       -1.9062226096
 H         -1.4088963961        1.9488187585       -1.4868863411
 H         -6.5010740861        2.6740440551       -0.9325585081
 H         -4.9098573296        2.6891570887       -1.6579154474
 H         -5.9166555808        0.4217333132       -1.3282140587
 H         -5.9378498582        0.6849852008        0.4034870198
 O         -4.3176143586       -1.0515125992        0.0476621842
 C         -3.3117881051       -1.9708207296        0.2757243839
 O         -3.7072044854       -3.0688503429        0.7180342070
 H          1.7963757996       -2.0103223606       -0.4497273350
 C          1.4981230170       -1.7601027701        0.5502127353
 C          0.2167060595       -2.0010451565        1.0178765148
 C         -0.0868182919       -1.6008295946        2.3215993529
 C          0.8502475233       -0.9804195970        3.1220245144
 C          2.1279176313       -0.7426800046        2.6454203083
 C          2.4472487805       -1.1370594122        1.3536147736
 N          3.7509427157       -0.9554917470        0.8562191592
 S          4.0547419816       -0.1800772081       -0.5950984669
 O          3.3277018071       -0.8183467916       -1.6601293353
 O          5.4976077773       -0.1913868670       -0.7103166078
 C          3.5082912615        1.5018896305       -0.3576172905
 C          4.4597897608        2.4659890747       -0.0834113203
 C          4.0516019286        3.7709547883        0.1373200047
 C          2.7023928185        4.0873132184        0.0852368743
 C          1.7616522511        3.1062922990       -0.1861276253
 C          2.1607184257        1.7964918812       -0.4085250731
 H          1.4416625292        1.0206813498       -0.6201023424
 H          0.7113187525        3.3480337716       -0.2287772410
 H          2.3810370068        5.1028943864        0.2553502549
 H          4.7831893219        4.5345100593        0.3477037609
 H          5.4974267799        2.1741462414       -0.0612015739
 H          4.4061624105       -0.6219621780        1.5492707917
 H          2.8680964442       -0.2614547547        3.2667443678
 H          0.5856945157       -0.6783031601        4.1242091728
 H         -1.0855003938       -1.7811429718        2.6976533234
 C         -0.9164408207       -2.6444662805        0.2568640827
 H         -1.3825687404       -3.3651818860        0.9500660544
 C         -0.6840397686       -3.4312838675       -1.0250666109
 C          0.1473726640       -3.0064210422       -2.1950940712
 C          0.5571675098       -4.1949314007       -1.3743735905
 H          0.4381772939       -5.1763470367       -1.8099371945
 H          1.4173964675       -4.1084511955       -0.7303470712
 H         -0.2551692953       -3.1860676428       -3.1825169112
 H          0.7157381243       -2.0920673590       -2.1346305359
 H         -1.6182705957       -3.9247530728       -1.2894455009
 O         -0.5101913724        0.0397059288       -0.8032167689
