  62
        -98.93964025
 C         -1.4394616266       -0.9691137699       -0.5447258579
 C         -2.5870534492       -1.0294915916        0.2851681308
 C         -3.3185463894        0.2254748244        0.5234286198
 C         -2.8694913792        1.3625055959       -0.0394989466
 C         -3.3571994027        2.7926841624        0.0660227135
 C         -4.7209234086        3.1094923690        0.6735320463
 C         -5.9139533634        2.6414034634       -0.1597132891
 H         -5.9669373309        3.2548178760       -1.0626269154
 H         -6.8243446963        2.8183003670        0.4169185442
 C         -5.8782688493        1.1796682258       -0.5983049119
 H         -5.0149749398        1.0123127970       -1.2453923562
 H         -6.7726842331        0.9884893559       -1.1973330681
 C         -5.8523713005        0.1574024719        0.5360168470
 H         -5.9845496382       -0.8322212237        0.0905747963
 H         -6.6920251213        0.3350833931        1.2107387986
 C         -4.5575301950        0.1203985228        1.3658222102
 H         -4.5041505015       -0.8507920538        1.8667107578
 H         -4.5608776389        0.8846452167        2.1397841917
 H         -4.7804779798        4.1983917310        0.7538198434
 H         -4.7810620091        2.7169526902        1.6844207219
 H         -3.3138742913        3.1999248812       -0.9493364302
 H         -2.5873352566        3.3196434906        0.6415372348
 O         -1.7633620539        1.3746364855       -0.8344931850
 C         -1.0170698972        0.2377438983       -1.0976531574
 O         -0.0396811078        0.4558099139       -1.8403603246
 O         -2.9881150920       -2.1021460707        0.8140476358
 C         -0.6741749466       -2.2687008126       -0.7318080739
 C          0.3794776087       -2.3925143828        0.3446140551
 C          0.3853060360       -3.4762219478        1.2137194490
 C          1.3225184468       -3.5561151716        2.2285335070
 C          2.2501985167       -2.5471978241        2.4068409083
 C          2.2542676918       -1.4572882633        1.5407401301
 C          1.3409319283       -1.4027781607        0.4991657584
 H          1.3463187089       -0.5578373095       -0.1683276752
 N          3.1870121181       -0.4268097865        1.7110102194
 S          2.8488193108        1.1858700526        1.3907881160
 O          3.5713692672        1.9086403803        2.4197743174
 O          1.4294911919        1.4350036396        1.3194368427
 C          3.6695684402        1.4722400286       -0.1635559421
 C          5.0437314547        1.6231612514       -0.1265137347
 C          5.7318944747        1.8270969867       -1.3102561995
 C          5.0379616477        1.8747947626       -2.5104969803
 C          3.6609047975        1.7236414459       -2.5304743345
 C          2.9641810023        1.5206421909       -1.3477234544
 H          1.8917920561        1.3971473149       -1.3475865729
 H          3.1140120896        1.7589869378       -3.4593204396
 H          5.5714751308        2.0326464010       -3.4346077053
 H          6.8031066481        1.9476539413       -1.2951961703
 H          5.5400384512        1.5933335541        0.8292478888
 H          3.7675918006       -0.5189353732        2.5315158734
 H          2.9647912307       -2.5941945239        3.2146554645
 H          1.3183283985       -4.4019577927        2.8992185638
 H         -0.3644094595       -4.2458890903        1.1050640080
 H         -1.4117016989       -3.0661846484       -0.5653407426
 C         -0.0691282449       -2.4564902433       -2.1076240155
 C          0.2196876400       -3.8462870604       -2.5877687221
 C         -0.8999394703       -3.0593684536       -3.1987216538
 H         -0.7819992564       -2.6806798884       -4.2026609734
 H         -1.9142125936       -3.3417195309       -2.9561330056
 H          1.1105932043       -4.0123808183       -3.1733061300
 H         -0.0364539860       -4.6658466760       -1.9336417135
 H          0.6225772866       -1.6729517480       -2.3861827957
