  62
        -98.93886290
 C         -1.8652790111       -0.8886943504       -0.1149959905
 C         -2.4544750674       -0.1606506996        0.9421016814
 C         -3.5707765151        0.7401402492        0.5949847137
 C         -3.9351107062        0.8483263422       -0.6965746204
 C         -5.0564920752        1.6647612961       -1.2819377956
 C         -6.4372245867        1.0332029169       -1.0404099288
 C         -6.6620960690        0.4976958645        0.3712290588
 H         -7.6255768863       -0.0186650947        0.3804526910
 H         -5.8950723257       -0.2445900500        0.5992489480
 C         -6.6890139285        1.5553664840        1.4720260236
 H         -7.4840834043        2.2735127259        1.2594215423
 H         -6.9430776507        1.0459774374        2.4050974969
 C         -5.3856027221        2.3258926599        1.6921766635
 H         -5.2463780008        3.0876470140        0.9296867756
 H         -5.4775226239        2.8552617602        2.6452158565
 C         -4.1393563583        1.4527056026        1.7988614973
 H         -3.3192213118        2.0651231969        2.1935412588
 H         -4.3086110026        0.6783147231        2.5557459207
 H         -6.5513761139        0.1973632875       -1.7349153428
 H         -7.2017067920        1.7750252470       -1.2774498562
 H         -5.0211641719        2.6795478593       -0.8965788392
 H         -4.8796168824        1.7124587075       -2.3587873786
 O         -3.3111571779        0.1530337737       -1.6901333487
 C         -2.2720247910       -0.7242120384       -1.4385752603
 O         -1.8062633125       -1.2780456961       -2.4516857351
 H          0.3089139932        0.5916783652        0.3087108555
 C          0.9211021193       -0.0538878722       -0.3090400357
 C          0.5345157221       -1.3767471254       -0.4920522478
 C          1.3372669830       -2.1978271888       -1.2718737076
 C          2.4759739123       -1.6940057172       -1.8782447330
 C          2.8445217425       -0.3723899282       -1.7124160757
 C          2.0595620987        0.4525916159       -0.9154818040
 N          2.4355635009        1.7921205592       -0.7212241579
 S          4.0469271072        2.1179219525       -0.4100456186
 O          4.0434406038        3.3408732733        0.3621256870
 O          4.7819080966        2.1608035774       -1.6496406181
 C          4.6209319397        0.7507018678        0.5828438679
 C          5.6604470522       -0.0377570145        0.1335850115
 C          6.0710724712       -1.1111123193        0.9079705150
 C          5.4350991474       -1.3783704534        2.1100980869
 C          4.3939639999       -0.5748227671        2.5496106579
 C          3.9810183161        0.5009308354        1.7808072670
 H          3.1766963794        1.1454307816        2.0982004755
 H          3.8992052938       -0.7835566422        3.4846709407
 H          5.7516089818       -2.2168596098        2.7100995799
 H          6.8814846542       -1.7362314583        0.5695949451
 H          6.1239087762        0.2038069350       -0.8090280650
 H          1.8273232542        2.3052913278       -0.1009344185
 H          3.7173566511        0.0378813809       -2.1937436790
 H          3.0831709903       -2.3402946741       -2.4932022349
 H          1.0665399712       -3.2303860730       -1.4163072080
 C         -0.7265324432       -1.8441590952        0.1922965773
 H         -0.5706183400       -1.7690060129        1.2788379568
 C         -1.1168845371       -3.2666735218       -0.1466668688
 C         -0.4927648561       -4.4143156321        0.5877934299
 C         -1.9235228785       -4.0503707923        0.8435630120
 H         -2.6992581110       -4.7042949941        0.4743045577
 H         -2.1708759757       -3.5654364510        1.7767609292
 H         -0.2865183164       -5.3235868151        0.0438449533
 H          0.2326456624       -4.1824734600        1.3525920744
 H         -1.3539372244       -3.3949390619       -1.1966874712
 O         -2.0661678517       -0.2540591384        2.1393459501
