  62
        -98.94914605
 C         -2.0773635260       -0.4436431464        0.5629788041
 C         -1.4027330279        0.5442098979        1.3195579646
 C         -1.6807251276        1.9404058051        0.9644874991
 C         -2.5333768696        2.2032893403       -0.0418098767
 C         -2.9137865546        3.5777070476       -0.5104370920
 C         -2.0155170681        4.0593209863       -1.6567286651
 C         -0.5195428884        3.9032477444       -1.3827896271
 H         -0.2613762582        2.8415951734       -1.3542936169
 H          0.0128110945        4.3318870492       -2.2355411031
 C         -0.0333870995        4.5736473586       -0.0902304270
 H          0.9018043781        5.0962030073       -0.3027759410
 H         -0.7570230698        5.3209750575        0.2389790666
 C          0.2535828088        3.5959026181        1.0510048224
 H          0.8467265591        4.1163836893        1.8081175675
 H          0.8589573317        2.7725995402        0.6623302178
 C         -0.9793023609        3.0101640626        1.7530204651
 H         -0.6437951458        2.5312782403        2.6777624066
 H         -1.6702152989        3.8144853657        2.0152774376
 H         -2.2588078637        3.4851980421       -2.5538772424
 H         -2.2429596144        5.1093572278       -1.8528099337
 H         -3.9464239290        3.5427657601       -0.8630915298
 H         -2.8504828945        4.2688601353        0.3280701434
 O         -3.1409491263        1.2307480286       -0.7672440395
 C         -2.8992169398       -0.1121823735       -0.5138113707
 O         -3.4815119630       -0.8879454422       -1.2961883735
 H          0.6111543676       -1.0730786501        0.2233112288
 C          0.2864664396       -1.8296721125       -0.4721349187
 C         -0.9496853967       -2.4351261061       -0.2788796231
 C         -1.3556709447       -3.4204461765       -1.1672258102
 C         -0.5508290212       -3.7566095599       -2.2433747610
 C          0.6492277908       -3.1073811520       -2.4664461190
 C          1.0699930205       -2.1264961781       -1.5727474497
 N          2.2787502315       -1.4451170384       -1.7626349904
 S          2.4954367417        0.1379627295       -1.2508813343
 O          1.2474677931        0.8541288762       -1.1472632411
 O          3.4638444381        0.6782174575       -2.1837008540
 C          3.2931405768       -0.0513550557        0.3307808248
 C          2.6358943147        0.2199794275        1.5128715014
 C          3.3119382248        0.0387301866        2.7106617776
 C          4.6234761459       -0.4074440990        2.7082651429
 C          5.2720164745       -0.6734845372        1.5110811263
 C          4.6030228794       -0.4939469868        0.3125336357
 H          5.0719405365       -0.6749679932       -0.6403427588
 H          6.2931599250       -1.0192475747        1.5098414024
 H          5.1418413776       -0.5471579877        3.6438507949
 H          2.7983306678        0.2453094550        3.6360899112
 H          1.6100830470        0.5564402614        1.5042586236
 H          2.7362321910       -1.6221542337       -2.6441881502
 H          1.2553186444       -3.3495673820       -3.3263138063
 H         -0.8759866779       -4.5209716803       -2.9331448130
 H         -2.3065856218       -3.9087119071       -1.0323659495
 C         -1.7907337853       -1.9090047317        0.8581132358
 H         -1.1739950566       -1.9080916736        1.7682776091
 C         -3.0527935539       -2.6986685283        1.1206363905
 C         -2.9699915083       -3.9997496341        1.8601653635
 C         -3.5729585675       -2.7984990233        2.5222558723
 H         -4.6412007245       -2.7745853674        2.6769294818
 H         -3.0087699459       -2.3048895068        3.2999596182
 H         -3.6250521661       -4.8043250900        1.5628185409
 H         -1.9945073271       -4.3239663275        2.1895201727
 H         -3.7821266230       -2.6075437145        0.3247389490
 O         -0.6085426952        0.2698371946        2.2606317911
