  62
        -98.94496514
 C          1.8880328956        0.7265358495       -0.1553468272
 C          2.4500146985        0.0808889161        0.9712988189
 C          3.5211828946       -0.8845020444        0.6924526833
 C          3.8688527152       -1.1290760454       -0.5844577704
 C          4.9758979784       -2.0489828813       -1.0092213121
 C          6.3057717853       -1.2935495320       -1.1415856476
 C          6.6442358228       -0.4214809708        0.0675291396
 H          7.6164648620        0.0372500640       -0.1248199904
 H          5.9148918253        0.3886694113        0.1377737939
 C          6.6909487647       -1.1776204060        1.4026893926
 H          7.5796798856       -0.8619095367        1.9531735798
 H          6.7876426052       -2.2483306243        1.2190972509
 C          5.4894806317       -0.9267205136        2.3157494727
 H          5.7249137317       -1.3274353363        3.3053256409
 H          5.3329486582        0.1491448532        2.4271985281
 C          4.1671933061       -1.5623823462        1.8681378392
 H          4.3194993753       -2.6246652737        1.6656803904
 H          3.4571638617       -1.4691019184        2.6953342292
 H          6.2520341535       -0.6507970844       -2.0233110823
 H          7.1020088834       -2.0229119643       -1.3011397303
 H          5.0735918849       -2.8528995085       -0.2820514842
 H          4.7135392167       -2.4778505664       -1.9779089599
 O          3.2726253132       -0.5255739595       -1.6438420585
 C          2.2740007894        0.4210427008       -1.4608438089
 O          1.8211295123        0.9000112038       -2.5166067538
 H         -0.3339889755       -0.6253013177        0.3404037715
 C         -0.9247090281        0.0023014330       -0.3155397812
 C         -0.4881761487        1.2940445086       -0.5866088564
 C         -1.2647986347        2.0940140621       -1.4135228480
 C         -2.4263487264        1.5969241175       -1.9806832115
 C         -2.8437788647        0.3037854085       -1.7286630354
 C         -2.0857181731       -0.4979211554       -0.8834334359
 N         -2.5098524840       -1.8074288266       -0.6034891295
 S         -4.1314082899       -2.0584140236       -0.2772774357
 O         -4.1697912821       -3.2317168273        0.5674646918
 O         -4.8672084755       -2.1513366766       -1.5137095011
 C         -4.6590087252       -0.6151854411        0.6299998756
 C         -4.0164233537       -0.3204093709        1.8162375376
 C         -4.3928047463        0.8127411022        2.5185330081
 C         -5.4005656642        1.6277323468        2.0254888315
 C         -6.0397811793        1.3151134566        0.8360730903
 C         -5.6658170095        0.1839876370        0.1282164194
 H         -6.1332901901       -0.0945421994       -0.8021281031
 H         -6.8242561842        1.9493616577        0.4559972983
 H         -5.6884201208        2.5108754115        2.5736411147
 H         -3.8957098983        1.0567896808        3.4437598253
 H         -3.2389610118       -0.9754866020        2.1762451870
 H         -1.9195198543       -2.3022315126        0.0482097024
 H         -3.7339589317       -0.1031762900       -2.1800378543
 H         -3.0126837913        2.2253579875       -2.6332507448
 H         -0.9557011783        3.1039165817       -1.6255864332
 C          0.7943442585        1.7572542905        0.0597236765
 H          0.6340280357        1.7866888520        1.1479007611
 C          1.2527787869        3.1242800195       -0.4015212884
 C          0.6993662266        4.3611670720        0.2386552553
 C          2.1122792367        3.9441509794        0.5120565829
 H          2.9162767067        4.5226931245        0.0823090906
 H          2.3459080297        3.5268083519        1.4808418668
 H         -0.0269547637        4.2334735109        1.0267255792
 H          0.5341919719        5.2314453174       -0.3782298800
 H          1.4824310591        3.1511471060       -1.4606995045
 O          2.0676961949        0.2965186076        2.1538557771
