  62
        -98.94033544
 C         -2.1569112653       -1.2498581849       -0.0952826763
 C         -2.4445487529       -0.0371749334       -0.7702571574
 C         -3.8396391146        0.4276138377       -0.6850944439
 C         -4.7435297310       -0.2980007958       -0.0040757078
 C         -6.1788796499        0.0880694384        0.2021505460
 C         -6.3549649273        0.8965249685        1.4952213646
 C         -5.3621602784        2.0496173732        1.6433492016
 H         -5.6007169907        2.5661233132        2.5756248013
 H         -4.3540572872        1.6425149219        1.7511511542
 C         -5.3790950254        3.0552413507        0.4836574840
 H         -6.3058702357        2.9528441184       -0.0822103335
 H         -5.3617094859        4.0660539923        0.8966875405
 C         -4.1883755372        2.9445285703       -0.4706442539
 H         -3.2565133040        2.9544113695        0.1009530246
 H         -4.1853614169        3.8286743493       -1.1139020759
 C         -4.1784268216        1.7133393632       -1.3854347416
 H         -5.1363770658        1.6311880458       -1.9032009912
 H         -3.3943808918        1.8639128833       -2.1335314275
 H         -7.3742537654        1.2860319239        1.5227108674
 H         -6.2256613991        0.2225928955        2.3452684130
 H         -6.5201379805        0.6696334643       -0.6520219011
 H         -6.7743611415       -0.8239645493        0.2706393687
 O         -4.4320253014       -1.4585358097        0.6271210982
 C         -3.1361565966       -1.9467777555        0.6190171299
 O         -2.9830803086       -2.9954775096        1.2762088020
 H          1.1316142700       -0.6205304411       -1.6471279330
 C          1.1391101918       -0.2512165453       -0.6336706694
 C          0.2399529961       -0.7581761038        0.2905723539
 C          0.2497010127       -0.2411202230        1.5828203117
 C          1.1275582289        0.7663158080        1.9357749978
 C          2.0150556206        1.2799729446        1.0068472850
 C          2.0127013644        0.7709966511       -0.2849406236
 N          2.9073731273        1.2917975088       -1.2329359201
 S          4.4939973794        1.5485987910       -0.7798991778
 O          4.6019447100        2.7812561083       -0.0397505261
 O          5.2547666485        1.4808976702       -2.0078667484
 C          4.8971608905        0.1710546321        0.2806472176
 C          4.8477842924       -1.0991903213       -0.2590930559
 C          5.1211203795       -2.1852820283        0.5558729399
 C          5.4362806719       -1.9839680727        1.8912264740
 C          5.4861118023       -0.7026010989        2.4170165796
 C          5.2123469614        0.3875527989        1.6062671112
 H          5.2393965923        1.4000029442        1.9748912466
 H          5.7339477269       -0.5490934134        3.4549580714
 H          5.6451207417       -2.8317369903        2.5244793079
 H          5.0849093597       -3.1832379112        0.1492364613
 H          4.6073370384       -1.2198960601       -1.3031246823
 H          2.8351205847        0.8724703420       -2.1474372639
 H          2.6930371433        2.0797069046        1.2572388905
 H          1.1186896441        1.1602446832        2.9408181714
 H         -0.4519473413       -0.6341893943        2.3063339958
 C         -0.7555577289       -1.8383223512       -0.0515899648
 H         -0.7780823218       -2.5521918012        0.7875658146
 C         -0.3697740386       -2.6400599135       -1.2858398942
 C         -1.3916995519       -3.4610394928       -2.0126828702
 C         -0.7900172877       -2.2582082478       -2.6721114118
 H         -0.0901151584       -2.4166127077       -3.4802200442
 H         -1.3977331906       -1.3752863771       -2.7902617802
 H         -1.1083549718       -4.4407439301       -2.3668680422
 H         -2.4146588221       -3.3998237046       -1.6705163671
 H          0.6161765218       -3.0833117376       -1.1818864303
 O         -1.5993343419        0.6324021594       -1.4175366499
