  62
        -98.93448250
 C         -2.3582290897       -1.3143059924        0.2897012139
 C         -2.5992988104       -0.2723487313       -0.6343971650
 C         -3.6857390595        0.6726895099       -0.3013507754
 C         -4.3888243899        0.4982411673        0.8312701523
 C         -5.5224438211        1.3250439156        1.3834575401
 C         -6.6034944513        1.7707337056        0.3867737855
 C         -6.5741375711        3.2707218930        0.0884004505
 H         -7.5659232648        3.5794640109       -0.2494415233
 H         -6.3656667406        3.8055558615        1.0173360933
 C         -5.5685401117        3.7009310920       -0.9781502321
 H         -5.9185765120        3.3713179762       -1.9588686960
 H         -5.5477372652        4.7932184990       -0.9915277353
 C         -4.1418534677        3.1858800751       -0.7771969085
 H         -3.8616435033        3.2368336928        0.2742945473
 H         -3.4672272051        3.8525182533       -1.3188740457
 C         -3.9209516425        1.7627913650       -1.3119266503
 H         -4.7565152855        1.4719611831       -1.9551980625
 H         -3.0322781502        1.7454874629       -1.9504586214
 H         -6.5167521862        1.1985420867       -0.5355715349
 H         -7.5753516258        1.5339296958        0.8228394494
 H         -5.9701115726        0.7036003219        2.1623585786
 H         -5.1005566473        2.1982099851        1.8873419068
 O         -4.1192721367       -0.5190045011        1.6979371924
 C         -3.1175340734       -1.4360636963        1.4580456697
 O         -3.0028496128       -2.3093655387        2.3406481407
 H          0.1436621938       -0.4379610509       -1.1368068677
 C          0.6837834091       -0.8654675604       -0.3049624401
 C          0.0848842254       -1.8631637292        0.4507970774
 C          0.7864710955       -2.3923986113        1.5278031487
 C          2.0541708204       -1.9320290255        1.8373790178
 C          2.6460217001       -0.9345959403        1.0833722440
 C          1.9525853881       -0.3972220369        0.0068607143
 N          2.5326236602        0.6341724937       -0.7514767714
 S          4.0986373845        0.4276149035       -1.3168712131
 O          4.2032026498        1.2876159877       -2.4753736405
 O          4.4086383232       -0.9682992563       -1.5230782399
 C          5.1145412434        1.0908134415       -0.0128683488
 C          6.1133052033        0.3167743343        0.5446831482
 C          6.8982284699        0.8582677408        1.5509578180
 C          6.6725573117        2.1576381346        1.9785282104
 C          5.6673230791        2.9230376235        1.4061575256
 C          4.8798726934        2.3879437483        0.3993600634
 H          4.0917359334        2.9501021982       -0.0733066485
 H          5.4948881464        3.9332486439        1.7410738503
 H          7.2836845066        2.5766986509        2.7622565401
 H          7.6805270638        0.2651466000        1.9966960054
 H          6.2488274585       -0.6904412415        0.1839462087
 H          1.9271809400        0.9822493244       -1.4812088347
 H          3.6331173558       -0.5722369277        1.3198638385
 H          2.5870876907       -2.3529787239        2.6762939012
 H          0.3256631157       -3.1631468612        2.1286477756
 C         -1.2900749122       -2.3807822781        0.0990755359
 H         -1.5393998945       -3.1726137100        0.8179832599
 C         -1.2990948633       -2.9837433520       -1.2931151002
 C         -0.6776374336       -4.3301093680       -1.5038459799
 C         -2.1665608407       -4.1720999452       -1.5726093082
 H         -2.6511271410       -4.2411487675       -2.5350097811
 H         -2.7587232824       -4.5613556367       -0.7569748458
 H         -0.1345745547       -4.5087344699       -2.4193352361
 H         -0.2600758280       -4.8283120093       -0.6419302310
 H         -1.1927118384       -2.2514690217       -2.0824491939
 O         -1.9497690601       -0.1081155930       -1.7037201974
