  62
        -98.94341925
 C          2.0028407427        0.7856400785        0.5394745524
 C          2.0685037331        0.0874890434       -0.6905371715
 C          2.2107120738       -1.3689408476       -0.5887063490
 C          2.2216002530       -1.9574993348        0.6207557565
 C          2.3072021585       -3.4365621566        0.8851880106
 C          3.7354511224       -3.9986977023        0.8673864800
 C          4.3795859290       -4.0965670081       -0.5160205837
 H          5.2807920167       -4.7030789442       -0.4070976790
 H          3.7075016984       -4.6282123000       -1.1901293231
 C          4.7652565215       -2.7441785504       -1.1311501923
 H          5.7756935282       -2.8052562966       -1.5412776556
 H          4.7811375557       -1.9804950882       -0.3502464215
 C          3.8452994767       -2.2764901336       -2.2587834033
 H          3.9182360254       -2.9667321670       -3.1020145541
 H          4.1867131997       -1.2944820306       -2.5953068610
 C          2.3697271328       -2.1511757043       -1.8572793272
 H          1.8409904231       -1.6089599323       -2.6451607441
 H          1.9201489607       -3.1385265621       -1.7522633791
 H          3.6943167740       -5.0018579843        1.2979576107
 H          4.3599987344       -3.3826307085        1.5183443622
 H          1.6920456295       -3.9698958414        0.1596318460
 H          1.8837835751       -3.5965785598        1.8793750381
 O          2.1315720304       -1.2524268945        1.7812119081
 C          2.0192581966        0.1282713062        1.7675938399
 O          1.9449099401        0.6494864482        2.9016979481
 O          2.0051983530        0.6495305544       -1.8154284508
 C          1.8013245682        2.2886320977        0.5419904404
 C          0.5163533353        2.6416072378       -0.1715005327
 C          0.3577835206        3.8078584587       -0.9093839753
 C         -0.8497803569        4.0843965842       -1.5277784807
 C         -1.9146976455        3.2082208059       -1.4340379369
 C         -1.7637582297        2.0340717778       -0.7022721027
 C         -0.5641356519        1.7760398781       -0.0618228791
 H         -0.4652501798        0.8726652886        0.5224718552
 N         -2.8051009548        1.0930591748       -0.6437175039
 S         -2.8002703028       -0.1465242267        0.4909545732
 O         -2.7641266785        0.3925982638        1.8342319629
 O         -1.7719197998       -1.0978262872        0.1497137637
 C         -4.4031441040       -0.8555978927        0.1637323632
 C         -5.4787566248       -0.5128253265        0.9608460946
 C         -6.7230730430       -1.0541233624        0.6773470758
 C         -6.8704297431       -1.9219955227       -0.3940881132
 C         -5.7813051619       -2.2578388077       -1.1847468437
 C         -4.5345853843       -1.7210642603       -0.9058775900
 H         -3.6569380034       -1.9590910633       -1.4842950589
 H         -5.8982566656       -2.9352199475       -2.0151985931
 H         -7.8393810690       -2.3421377223       -0.6126312758
 H         -7.5704478500       -0.7978195107        1.2924752082
 H         -5.3136659198        0.1579256723        1.7886454299
 H         -3.7238939204        1.4895544549       -0.7807893072
 H         -2.8498089881        3.4194012994       -1.9290749093
 H         -0.9611482445        4.9955327814       -2.0957659116
 H          1.1802290868        4.4984863171       -1.0013741293
 H          1.6936896638        2.5806108281        1.5982680593
 C          3.0141271456        2.9877541762       -0.0394190129
 C          3.4460478576        4.3248707021        0.4808631716
 C          4.2507671792        3.1017184657        0.7988611037
 H          5.2110779919        2.9735942189        0.3225761215
 H          4.2040114256        2.7029543133        1.8023032013
 H          3.8591150848        5.0396189485       -0.2148960993
 H          2.8635531332        4.7649796270        1.2763139102
 H          3.1419676314        2.7803746363       -1.0955571056
