  62
        -98.93249956
 C          2.1770010017        1.0006544807        0.1764818605
 C          2.4757324584       -0.1051340421        1.0064847800
 C          3.1952734942       -1.2185322971        0.3707956929
 C          3.4879828909       -1.1437975600       -0.9405775754
 C          4.2810772651       -2.1581681108       -1.7145773996
 C          5.7840152230       -1.9922853854       -1.4113030296
 C          6.4155101088       -3.1788188495       -0.6825449876
 H          6.5645269911       -3.9936737394       -1.3941297577
 H          7.4007784563       -2.8613589711       -0.3345584674
 C          5.6224471459       -3.7336727693        0.5046983360
 H          4.8192647918       -4.3764594092        0.1413944867
 H          6.3028920086       -4.3749598744        1.0689383035
 C          5.0240847081       -2.6917539603        1.4586576464
 H          5.5829319329       -1.7570704669        1.4073033509
 H          5.1262804512       -3.0672563385        2.4788831332
 C          3.5276371412       -2.4034462118        1.2353080048
 H          3.0395927428       -3.2966815832        0.8355671067
 H          3.0664924061       -2.1820172544        2.2024344321
 H          6.3280073581       -1.8354083856       -2.3439061000
 H          5.9148693183       -1.0861546172       -0.8160211591
 H          3.9470610663       -3.1610274790       -1.4580212588
 H          4.0853630893       -1.9841779291       -2.7727777214
 O          3.1531429987       -0.0783306797       -1.7135838001
 C          2.4904451536        1.0187513868       -1.1826193042
 O          2.2449099088        1.9179371398       -2.0073736786
 H         -0.4045693426        0.3033447104        0.5798566492
 C         -0.7480168473        1.2184485909        0.1126777489
 C          0.0895842144        2.3280349812        0.1157965018
 C         -0.3639860210        3.5011546767       -0.4704347804
 C         -1.6150651337        3.5480901966       -1.0622481523
 C         -2.4365854501        2.4369124903       -1.0814493388
 C         -1.9981378387        1.2604487100       -0.4857768958
 N         -2.8133428374        0.1121812428       -0.5118695697
 S         -4.4565644109        0.3166711767       -0.1766015235
 O         -5.1056212315        0.8175635790       -1.3620915946
 O         -4.6269260109        1.1126921228        1.0186711648
 C         -4.9571957279       -1.3673734302        0.1166950608
 C         -5.1663519551       -2.1929438092       -0.9718493436
 C         -5.5364589374       -3.5099144992       -0.7512886188
 C         -5.6908744219       -3.9764163159        0.5459576950
 C         -5.4787859459       -3.1354174771        1.6279432341
 C         -5.1061354241       -1.8174387908        1.4145773432
 H         -4.9380073840       -1.1261961532        2.2249378370
 H         -5.6023362715       -3.5000607180        2.6349998367
 H         -5.9813271945       -5.0012784818        0.7150001705
 H         -5.7044497464       -4.1665664592       -1.5896357311
 H         -5.0444800356       -1.7841856606       -1.9613229709
 H         -2.4256868776       -0.6354962046        0.0476291211
 H         -3.4113187669        2.4652806868       -1.5408432799
 H         -1.9546503925        4.4650743060       -1.5200759941
 H          0.2616326668        4.3782512056       -0.4717760670
 C          1.4414414767        2.1875946237        0.7728694161
 H          1.2776749835        1.9281625949        1.8294754559
 C          2.2907368750        3.4383118286        0.7058741700
 C          2.0711493709        4.5473982298        1.6896468320
 C          3.2963267254        3.6904549889        1.7876960499
 H          4.2495591396        4.1182143012        1.5156845913
 H          3.3546302048        2.9692237901        2.5898841546
 H          2.1847718957        5.5665185256        1.3523313267
 H          1.2964586745        4.4120406473        2.4292223752
 H          2.5715710305        3.6991917645       -0.3080859297
 O          2.1475361649       -0.1621214381        2.2235477418
