  62
        -98.94461031
 C         -1.8804358237       -1.4419337032       -0.0528945230
 C         -2.7230124716       -0.7544342059        0.8626083254
 C         -3.5685670830        0.3052750888        0.3044421688
 C         -3.5391933645        0.5514395708       -1.0175832138
 C         -4.3756957028        1.5641591721       -1.7517354583
 C         -3.7991119475        2.9864411510       -1.7357557411
 C         -3.8889196206        3.7071070266       -0.3900290906
 H         -3.6473585407        4.7563389901       -0.5712659389
 H         -4.9165305186        3.6682678746       -0.0274829645
 C         -2.9393501205        3.1575484859        0.6837172053
 H         -2.1741203825        2.5401793697        0.2075135234
 H         -2.4283216389        3.9873028910        1.1768052322
 C         -3.6217409461        2.3318919813        1.7741460731
 H         -4.3065799563        2.9662663364        2.3408671848
 H         -2.8524586888        1.9676624899        2.4596227561
 C         -4.4007774803        1.1183838361        1.2494135791
 H         -5.3210776143        1.4425352421        0.7637235104
 H         -4.6582060195        0.4810457432        2.0986878015
 H         -4.3525444143        3.5702232907       -2.4749337033
 H         -2.7566397572        2.9448221890       -2.0603011227
 H         -4.4318398670        1.2271110225       -2.7891908097
 H         -5.3836533800        1.5748624988       -1.3357661990
 O         -2.7320394117       -0.1364447045       -1.8653525713
 C         -1.8692380941       -1.1247567691       -1.4110088397
 O         -1.1718872999       -1.6191021116       -2.3213226378
 O         -2.7730714985       -1.0259879893        2.0908554058
 C         -1.0114644274       -2.5457943783        0.5280650563
 C          0.4106375634       -2.0864971231        0.7466839174
 C          0.9558295477       -2.0354849924        2.0243416389
 C          2.2624402752       -1.6213566410        2.2183899591
 C          3.0474444450       -1.2397926588        1.1454295831
 C          2.5040274018       -1.2684442086       -0.1329612639
 C          1.1988268031       -1.6967114333       -0.3268875782
 H          0.7826248191       -1.7141838036       -1.3231446097
 N          3.2781300584       -0.8483007891       -1.2279279850
 S          4.1775130386        0.5499330162       -1.0495483918
 O          4.2675115990        1.1224347678       -2.3743910066
 O          5.4352246194        0.2338469310       -0.4184176685
 C          3.2244985698        1.6101420672        0.0258588548
 C          3.7850439549        2.0767606473        1.1974914321
 C          3.0289046573        2.8891559790        2.0271442961
 C          1.7300297876        3.2180560931        1.6729015739
 C          1.1826274635        2.7454406447        0.4899431793
 C          1.9337849934        1.9332587549       -0.3436529161
 H          1.5311744637        1.5509430176       -1.2689944405
 H          0.1716121383        3.0030945517        0.2165914226
 H          1.1377739754        3.8458280394        2.3196269803
 H          3.4527331799        3.2596604766        2.9464661906
 H          4.7973644794        1.7929316382        1.4352140414
 H          2.7763703131       -0.8572322723       -2.1039852553
 H          4.0695489407       -0.9229723114        1.2759002514
 H          2.6744927302       -1.5939612497        3.2153263524
 H          0.3441675574       -2.3144761674        2.8696164522
 H         -1.4470115608       -2.7575703037        1.5137377654
 C         -1.0408091287       -3.8222862449       -0.2904995203
 C         -0.6860454055       -5.1182215921        0.3720077262
 C         -2.1053695371       -4.8411437556       -0.0217289490
 H         -2.5262796912       -5.3787577489       -0.8581502358
 H         -2.8187504345       -4.6243187658        0.7600675697
 H         -0.1283689604       -5.8492004459       -0.1930212999
 H         -0.4374792430       -5.0915352749        1.4220728177
 H         -0.7364884574       -3.6830000923       -1.3197338344
