  62
        -98.94496053
 C         -2.4570786104       -1.2226295279       -0.1116916582
 C         -3.3431751417       -0.6419382894        0.8341983852
 C         -4.1137723519        0.5219377267        0.3816683600
 C         -3.9523474373        0.9646243183       -0.8782223909
 C         -4.6266367628        2.1737413967       -1.4570744865
 C         -3.7684795080        3.4320833941       -1.2653786472
 C         -3.2563533819        3.6203098859        0.1628825611
 H         -2.5499368894        2.8197265940        0.3970759121
 H         -2.6928446206        4.5558233342        0.1842157123
 C         -4.3564674142        3.6599750809        1.2331070715
 H         -5.3196993943        3.8672471923        0.7656054507
 H         -4.1449602699        4.4823475646        1.9196319866
 C         -4.4659157121        2.3903574178        2.0796443888
 H         -3.4798037579        2.1254605535        2.4696696025
 H         -5.1098553719        2.6075752501        2.9358686309
 C         -5.0485278556        1.1624929959        1.3685141991
 H         -5.2491541598        0.4019887891        2.1286122783
 H         -5.9926733142        1.4279110045        0.8889681097
 H         -2.9039113619        3.3677162093       -1.9306891264
 H         -4.3596485627        4.3013197215       -1.5595128253
 H         -5.5956695074        2.3059979221       -0.9797999334
 H         -4.7763609681        2.0064820314       -2.5250444012
 O         -3.1091085244        0.3760616598       -1.7619437292
 C         -2.3277406742       -0.7132548788       -1.4036217015
 O         -1.5921242757       -1.1166442401       -2.3277343337
 O         -3.4848197100       -1.0838677622        2.0051785434
 C         -1.6245365576       -2.4029010380        0.3665198347
 C         -0.2309469778       -1.9203798780        0.6899612108
 C          0.1544713305       -1.7090655061        2.0093070210
 C          1.4076803933       -1.2029262197        2.3056794550
 C          2.2971671919       -0.8877365757        1.2938813341
 C          1.9158153703       -1.0822872167       -0.0269431220
 C          0.6680550511       -1.6108967064       -0.3210403559
 H          0.3719946735       -1.7358169897       -1.3517277307
 N          2.8041011562       -0.7306057219       -1.0643980119
 S          3.2921689327        0.8802727320       -1.0901326287
 O          2.3049385427        1.7434318377       -0.4814825081
 O          3.6321603618        1.1601915272       -2.4683520559
 C          4.7845286899        0.8772916909       -0.1177348096
 C          4.8886208677        1.6953563337        0.9900742270
 C          6.0618419371        1.6769565965        1.7285539523
 C          7.1042524690        0.8460314330        1.3474575984
 C          6.9846379221        0.0323326074        0.2304542604
 C          5.8150677738        0.0464719002       -0.5124900277
 H          5.6813170469       -0.5663626902       -1.3881803789
 H          7.7973604015       -0.6123615456       -0.0627961927
 H          8.0152867840        0.8326049696        1.9246014657
 H          6.1563257165        2.3089770831        2.5969557883
 H          4.0487737280        2.3194833081        1.2510321859
 H          2.4539878086       -0.9889240658       -1.9771259128
 H          3.2710712383       -0.4829104637        1.5161900286
 H          1.6931176661       -1.0464460232        3.3347664708
 H         -0.5476339752       -1.9254208849        2.8016348422
 H         -2.0954410474       -2.7214719254        1.3060415317
 C         -1.6278822186       -3.5747273279       -0.5931846375
 C         -1.2177452796       -4.9246618862       -0.0881875320
 C         -2.6528265819       -4.6542711935       -0.4239816143
 H         -3.0722980853       -5.1078485625       -1.3094233212
 H         -3.3572116819       -4.5517684455        0.3885395912
 H         -0.6487118720       -5.5676022918       -0.7418483062
 H         -0.9483165365       -5.0058696498        0.9538931707
 H         -1.3547360616       -3.3099137799       -1.6061693626
