  62
        -98.93238445
 C         -1.6595474672       -1.5603214696        0.6245068912
 C         -1.7263054177       -0.2159353706        1.0735448304
 C         -2.9393801434        0.5372734616        0.7238409386
 C         -3.9061967258       -0.0782150556        0.0195523144
 C         -5.1823273946        0.5560143702       -0.4575387598
 C         -4.9126653585        1.4321008037       -1.6972675987
 C         -5.1420397248        2.9271095789       -1.4727774411
 H         -4.7178375454        3.4559006699       -2.3291273315
 H         -6.2162607691        3.1235437694       -1.4646721212
 C         -4.5495835036        3.5060049638       -0.1843183857
 H         -4.5607559665        4.5929004340       -0.2899872544
 H         -5.2014011684        3.2692248805        0.6578530439
 C         -3.1222317401        3.0562961740        0.1543991652
 H         -2.6051382556        2.7276946608       -0.7471979468
 H         -2.5780018532        3.9208479792        0.5393579364
 C         -3.0340380456        1.9521868433        1.2242321887
 H         -3.8815584312        2.0407842186        1.9097323210
 H         -2.1213595802        2.0978738750        1.8093775588
 H         -3.8830470288        1.2626968776       -2.0194777810
 H         -5.5540297979        1.1079314186       -2.5182719366
 H         -5.8706330946       -0.2518417783       -0.7072750277
 H         -5.6187667037        1.1492376418        0.3430828983
 O         -3.7987855043       -1.3608477775       -0.4098323819
 C         -2.6715742246       -2.1332394934       -0.1451741962
 O         -2.7215356068       -3.2722871692       -0.6421563779
 O         -0.8104832026        0.3215431468        1.7510567390
 C         -0.3967731647       -2.3182487081        0.9946074993
 C          0.6870996392       -1.9897162626        0.0007927469
 C          0.4699250747       -2.1268546489       -1.3667225553
 C          1.4572065160       -1.7822076558       -2.2720852943
 C          2.6742281235       -1.2871565703       -1.8348720828
 C          2.8952752455       -1.1358153067       -0.4728311762
 C          1.9063151276       -1.4925595673        0.4350989711
 H          2.0789634218       -1.3589628051        1.4943018325
 N          4.1256441461       -0.6079375900       -0.0258568376
 S          4.4474983404        0.9840376187       -0.4446947105
 O          4.5384941342        1.0783002898       -1.8788462485
 O          5.6315496049        1.3451782924        0.3001955415
 C          3.0420794244        1.9055255343        0.1500029553
 C          1.8997495193        1.9610487945       -0.6231849211
 C          0.7888041912        2.6215556443       -0.1256727694
 C          0.8369675408        3.2086364608        1.1281463530
 C          1.9903510448        3.1416719439        1.8933241321
 C          3.1040560414        2.4792379560        1.4039803649
 H          4.0223250785        2.4057785558        1.9647066049
 H          2.0214505580        3.5965657980        2.8704569024
 H         -0.0330176911        3.7169479395        1.5123165765
 H         -0.1145863976        2.6673127258       -0.7120119581
 H          1.8979255438        1.4940676874       -1.5950638714
 H          4.2625628722       -0.7145324551        0.9701231950
 H          3.4447221341       -0.9926832314       -2.5286946190
 H          1.2774339932       -1.8970763574       -3.3305727038
 H         -0.4836194825       -2.5024966730       -1.7089009041
 H         -0.0884462967       -1.8942642002        1.9638171932
 C         -0.5981021633       -3.8110088766        1.2005122806
 C         -0.0572448049       -4.8569304512        0.2773360914
 C          0.5605942359       -4.6633654014        1.6276197277
 H          0.4009417006       -5.4144804245        2.3861604091
 H          1.5332027181       -4.1954957133        1.6656782325
 H         -0.6675871872       -5.7294433553        0.1017652303
 H          0.5023250736       -4.5391768626       -0.5882408131
 H         -1.5565977114       -4.0303963531        1.6586127936
