  62
        -98.94613822
 C          1.8979652837        1.2764666313        0.3081313645
 C          1.6652416751       -0.0786534307       -0.0242292343
 C          2.7718003560       -1.0057306789        0.2528098544
 C          3.9031807170       -0.5341268138        0.8079760160
 C          5.1241016247       -1.3574819253        1.0968663401
 C          6.0986222526       -1.3412280539       -0.0890149832
 C          5.4395109650       -1.6484222036       -1.4337129996
 H          4.7466027444       -0.8417268574       -1.6841617293
 H          6.2265165998       -1.6412493472       -2.1909809300
 C          4.6940654142       -2.9894507385       -1.4835066315
 H          4.9494901218       -3.4973411107       -2.4159286388
 H          5.0267140040       -3.6290033300       -0.6651673203
 C          3.1694761097       -2.8691035034       -1.4457874250
 H          2.8395337270       -2.1563572711       -2.2060414621
 H          2.7453759336       -3.8426288572       -1.7060360020
 C          2.5644536895       -2.4519693256       -0.0993584637
 H          2.9449613714       -3.1008607295        0.6920381225
 H          1.4812487310       -2.5886797495       -0.1695928777
 H          6.5542150372       -0.3501617709       -0.1497408937
 H          6.8901839321       -2.0674111598        0.1045611263
 H          5.6234364158       -0.9371613040        1.9714148329
 H          4.8226312815       -2.3793557499        1.3184350552
 O          4.0813062068        0.7721327085        1.1327380915
 C          3.0916093301        1.7092218374        0.8860576477
 O          3.3849533514        2.8724300763        1.2281836119
 O          0.5892225884       -0.4974625416       -0.5244023287
 C          0.8214295443        2.3145621289        0.0439054121
 C         -0.4402671525        1.9371781203        0.7811194305
 C         -0.3736846935        1.7558286948        2.1612222373
 C         -1.4969735116        1.4085459398        2.8852784955
 C         -2.7110735775        1.2226599693        2.2460342261
 C         -2.7891517843        1.4027796793        0.8713913153
 C         -1.6611607571        1.7698402416        0.1479314718
 H         -1.7550885735        1.8946333028       -0.9173184023
 N         -4.0120605743        1.2369329933        0.1912993553
 S         -4.1128949430        0.0876026014       -1.0250801731
 O         -3.1915063860        0.4089793420       -2.0822284400
 O         -5.5143249116        0.0600530516       -1.3860256703
 C         -3.6801570479       -1.4463064032       -0.2227521985
 C         -4.7041516265       -2.2652703762        0.2144258407
 C         -4.3912650544       -3.4258443865        0.9023365464
 C         -3.0638450954       -3.7406150217        1.1520595084
 C         -2.0501621684       -2.9051062086        0.7105147329
 C         -2.3533449447       -1.7439608535        0.0150414870
 H         -1.5729978025       -1.0881731862       -0.3382596831
 H         -1.0154426058       -3.1416609575        0.9030887628
 H         -2.8169332649       -4.6412867479        1.6919742844
 H         -5.1794860397       -4.0774714012        1.2436631964
 H         -5.7208331509       -1.9807204138       -0.0043345196
 H         -4.8041411174        1.1263994648        0.8097592539
 H         -3.5902750466        0.9441960480        2.8073308215
 H         -1.4274895670        1.2740026856        3.9540898093
 H          0.5783006417        1.8925904613        2.6568283272
 H          1.1964196439        3.2563970281        0.4703621108
 C          0.6245607627        2.5016385389       -1.4455822135
 C          0.1036643610        3.8030003689       -1.9741349925
 C          1.5385763514        3.4271692746       -2.1881922269
 H          1.8579683522        3.1502862238       -3.1818476502
 H          2.2948576443        3.9432350718       -1.6142193228
 H         -0.5659988943        3.7824952039       -2.8208751998
 H         -0.1149251975        4.5813359872       -1.2585837415
 H          0.3204873713        1.5911411878       -1.9501620960
