  62
        -98.94968037
 C         -1.5019987002       -1.0426049734        0.0415183997
 C         -2.5244849317       -0.6234841809        0.9231699649
 C         -3.0549770612        0.7235490191        0.6911908934
 C         -2.5318895815        1.4882131914       -0.2849300682
 C         -2.9432999353        2.8963598294       -0.6200890755
 C         -4.1676222283        2.9899189376       -1.5412968981
 C         -5.5037035941        2.6393251741       -0.8851256257
 H         -5.6200428227        3.2203579857        0.0302559633
 H         -6.2906574903        2.9537805691       -1.5734649342
 C         -5.6850552208        1.1466463643       -0.5764817039
 H         -6.6779017579        0.8258254330       -0.8994407482
 H         -4.9579310428        0.5657248094       -1.1483204433
 C         -5.5514949956        0.7846383137        0.9026479915
 H         -6.3544406065        1.2593203965        1.4708590348
 H         -5.6626173406       -0.2980857094        1.0020903491
 C         -4.2090518545        1.1814641029        1.5313047294
 H         -4.1659673164        2.2602908338        1.6815551253
 H         -4.1259508497        0.6907685009        2.5044749763
 H         -4.0041675793        2.3415333880       -2.4050761185
 H         -4.2237855772        4.0190475949       -1.9033937635
 H         -3.1329292360        3.4494490750        0.3004980384
 H         -2.0903888533        3.3541719952       -1.1262406185
 O         -1.5282753682        1.0598203333       -1.0938102919
 C         -0.9920713326       -0.2089233807       -0.9528730089
 O         -0.0838986968       -0.4768892718       -1.7641674305
 H          0.4398047509       -0.5652421816        1.5982718168
 C          1.1081555985       -1.2901560128        1.1563495462
 C          0.5956726748       -2.3322826308        0.3942956889
 C          1.4850227553       -3.2506539355       -0.1510078776
 C          2.8485340977       -3.1109721501        0.0426651485
 C          3.3553924162       -2.0440183349        0.7616289628
 C          2.4734271179       -1.1254926135        1.3179249430
 N          2.9335904115        0.0011694866        2.0352266008
 S          2.6435441548        1.4890800153        1.3140820482
 O          3.2906387268        2.4566329764        2.1753446566
 O          1.2304157599        1.6674136606        1.1040125547
 C          3.5291704858        1.3905892852       -0.2316787372
 C          4.8191412258        1.8855125187       -0.2778378453
 C          5.5541456526        1.7398521549       -1.4425792282
 C          4.9929016509        1.0928213867       -2.5336112480
 C          3.6994231664        0.5991637356       -2.4688800944
 C          2.9542810279        0.7448826438       -1.3077909668
 H          1.9432713747        0.3721136230       -1.2421601022
 H          3.2549463918        0.0954580464       -3.3122893661
 H          5.5650995336        0.9732339986       -3.4400862504
 H          6.5592114575        2.1264210803       -1.4949994664
 H          5.2108039220        2.3828546381        0.5949833808
 H          3.9128308697       -0.0526326256        2.2834376084
 H          4.4198746861       -1.9183682013        0.8910924870
 H          3.5257293097       -3.8324054221       -0.3880817942
 H          1.1089922144       -4.0755417303       -0.7338978271
 C         -0.8989304894       -2.4242724181        0.2089893424
 H         -1.3389169697       -2.8264116345        1.1345329708
 C         -1.3028385171       -3.3149777020       -0.9492758161
 C         -1.5125664665       -4.7849551702       -0.7442427101
 C         -2.6885503125       -3.8848229226       -0.9710954145
 H         -3.2098713266       -3.9393780209       -1.9150228977
 H         -3.3290865562       -3.6549470639       -0.1320276845
 H         -1.2286741999       -5.4615880192       -1.5361656642
 H         -1.3629773764       -5.1782260248        0.2498860901
 H         -0.8840627706       -2.9814173393       -1.8923971997
 O         -2.9676489156       -1.3397260199        1.8629489081
