  62
        -98.93758701
 C         -2.2548088721        0.7866104168       -0.0667636875
 C         -3.5721758869        1.2094804637       -0.3813574164
 C         -4.6600452271        0.5076946764        0.3077721197
 C         -4.3706233605       -0.4773877372        1.1767410496
 C         -5.3654544679       -1.2681747246        1.9824813062
 C         -5.9794749921       -2.4545399250        1.2265380988
 C         -6.9854476014       -2.0811517055        0.1369768120
 H         -7.7387614694       -1.4119920794        0.5537419372
 H         -7.4939646373       -3.0011297766       -0.1580492307
 C         -6.3591704319       -1.4418199378       -1.1102495661
 H         -6.7775494305       -1.9053939798       -2.0064607823
 H         -5.2847368331       -1.6398901064       -1.1198589851
 C         -6.5858570029        0.0651151305       -1.2319094228
 H         -7.6521681982        0.2665626780       -1.3553593731
 H         -6.0701481309        0.4184449022       -2.1284213580
 C         -6.0703363807        0.8798225730       -0.0382736060
 H         -6.7227673434        0.7397384261        0.8233031115
 H         -6.0768566879        1.9366423941       -0.3159435324
 H         -6.4887954028       -3.0806637180        1.9627439536
 H         -5.1709065898       -3.0456357838        0.7901520362
 H         -6.1592665111       -0.6080327206        2.3332822894
 H         -4.8251538550       -1.6546724527        2.8493954686
 O         -3.0953212359       -0.8672018850        1.4394015935
 C         -2.0079548989       -0.2704595667        0.8101228505
 O         -0.9126162046       -0.7756713607        1.1211520947
 O         -3.8254687447        2.1294647494       -1.2033434518
 C         -1.1080628534        1.4910089800       -0.7684700926
 C         -0.1148625350        0.4864235919       -1.2961127746
 C         -0.5478218528       -0.4496731898       -2.2319410643
 C          0.3185790812       -1.4032435732       -2.7282430345
 C          1.6358839795       -1.4393567411       -2.3068349490
 C          2.0832535989       -0.5004459604       -1.3845736916
 C          1.2093674854        0.4572090336       -0.8888866056
 H          1.5712724888        1.1557212972       -0.1547611836
 N          3.4357586034       -0.4915904513       -0.9979515219
 S          3.9311013857        0.0123846180        0.5318226346
 O          3.3801155808       -0.8375324338        1.5637005737
 O          3.6942866419        1.4275174864        0.6650574029
 C          5.6843095617       -0.2800854486        0.3720337536
 C          6.2616786839       -1.3669363284        0.9998627403
 C          7.6218504400       -1.5865638565        0.8455616842
 C          8.3767344428       -0.7218977921        0.0677803464
 C          7.7832976050        0.3658861651       -0.5558319375
 C          6.4248017364        0.5918611030       -0.4038937272
 H          5.9222800960        1.4277841947       -0.8615557840
 H          8.3739113935        1.0373114130       -1.1579737363
 H          9.4346843599       -0.8950403873       -0.0508979664
 H          8.0861059662       -2.4292866616        1.3320359738
 H          5.6358579814       -2.0084454344        1.5994874116
 H          3.9089730513       -1.3506284667       -1.2450974768
 H          2.3119090394       -2.1896373151       -2.6883094789
 H         -0.0339356333       -2.1299170972       -3.4450111782
 H         -1.5809177944       -0.4273944858       -2.5527890350
 H         -1.5809911497        1.9859287582       -1.6341208654
 C         -0.4607638373        2.5925326716        0.0571651923
 C         -1.2257657342        3.3326436173        1.1119483266
 C         -0.1122663420        2.4099866730        1.5028619932
 H          0.8152722480        2.8331963090        1.8617812480
 H         -0.3573411595        1.4640187399        1.9609317052
 H         -1.0704612979        4.3968350978        1.2059205810
 H         -2.2403264610        3.0182662356        1.3095763798
 H          0.2340030951        3.1839127920       -0.5322999569
