  62
        -98.94604071
 C          1.5316858394        1.5105341886       -0.0181265280
 C          1.4322283661        0.1127202266        0.1864938181
 C          2.6732322525       -0.5572345992        0.5961957338
 C          3.7958670632        0.1618776554        0.7743111317
 C          5.1333719860       -0.3795476091        1.2014068575
 C          5.9679335349       -0.9579959202        0.0502045582
 C          5.4761548242       -2.2959201222       -0.5041093904
 H          6.2695226049       -2.6870019648       -1.1443010484
 H          5.3438332833       -3.0011174894        0.3169115649
 C          4.1808489546       -2.2057915726       -1.3233082521
 H          4.0059542220       -1.1672545095       -1.6138403759
 H          4.2935886385       -2.7803800261       -2.2455879387
 C          2.9384485222       -2.7350127319       -0.6063648064
 H          2.0753134900       -2.5790009257       -1.2577374662
 H          3.0456824252       -3.8082011494       -0.4347027967
 C          2.6451091372       -2.0492394652        0.7339265386
 H          1.6372673493       -2.3287040098        1.0501659907
 H          3.3581636678       -2.3768859811        1.4898584061
 H          6.0079518951       -0.2219513806       -0.7561989314
 H          6.9854259968       -1.0961486984        0.4234249876
 H          5.6831520174        0.4568612205        1.6383069535
 H          4.9926098995       -1.1411997853        1.9688043352
 O          3.8393394727        1.5105228950        0.5986812082
 C          2.7176851197        2.2137911809        0.1874971413
 O          2.9002199750        3.4411864672        0.0523465938
 O          0.3699953338       -0.5417029728        0.0373615248
 C          0.3082746266        2.2884625139       -0.4703842718
 C         -0.8125756196        2.0555450946        0.5118989119
 C         -0.6257962656        2.4436332405        1.8368419384
 C         -1.6078065338        2.2239895437        2.7825500541
 C         -2.7915221242        1.5982494718        2.4307253376
 C         -2.9878199999        1.2101464061        1.1113892589
 C         -2.0070439173        1.4503862457        0.1582495694
 H         -2.1930538180        1.1470398633       -0.8574992270
 N         -4.1815473079        0.5869108236        0.7227475430
 S         -4.2008595330       -0.5839359522       -0.4653642347
 O         -4.0483709562        0.0214674202       -1.7652816887
 O         -5.4554598833       -1.2763364945       -0.2475869880
 C         -2.8566787392       -1.7097399644       -0.1396525346
 C         -2.0817496966       -2.1488543079       -1.1915692268
 C         -1.0906855176       -3.0850980781       -0.9508379011
 C         -0.8883927084       -3.5599327693        0.3339169646
 C         -1.6701496856       -3.1029870734        1.3826260477
 C         -2.6683956395       -2.1732520344        1.1461947524
 H         -3.2935010987       -1.8078176393        1.9450622778
 H         -1.5020425933       -3.4656717779        2.3844744817
 H         -0.1118274060       -4.2859995798        0.5190437040
 H         -0.4748337001       -3.4349703039       -1.7643313100
 H         -2.2633857237       -1.7445295290       -2.1749834285
 H         -4.8190244998        0.3691103412        1.4740072008
 H         -3.5573326813        1.4158066411        3.1692231948
 H         -1.4489169679        2.5323886555        3.8049181777
 H          0.3072811579        2.9165276579        2.1131964285
 H          0.5867326347        3.3513276142       -0.4345947491
 C         -0.0470820967        1.9240395955       -1.8962453696
 C         -0.8535775549        2.8701903040       -2.7321861529
 C          0.6015387870        2.6632103663       -3.0258367207
 H          0.8765783173        2.1124979383       -3.9129789708
 H          1.2934981984        3.4528435122       -2.7705120615
 H         -1.5840547232        2.4609103962       -3.4139431247
 H         -1.1517561779        3.8042732016       -2.2802935626
 H         -0.2141642823        0.8608478040       -2.0287978930
