  62
        -98.94486653
 C         -1.9322438592       -0.1970558399        0.0491660007
 C         -2.9616724090       -1.0486867001        0.5175368307
 C         -4.2661584891       -0.4148256304        0.7478185308
 C         -4.4016177494        0.9063809196        0.5312907209
 C         -5.6853128395        1.6704728694        0.6752952510
 C         -6.4573022596        1.7130689093       -0.6508909789
 C         -6.6124977294        0.3469005893       -1.3191425490
 H         -7.1991787595        0.4945230992       -2.2284798789
 H         -5.6279590094       -0.0125213605       -1.6273298591
 C         -7.2879314692       -0.7160133909       -0.4413450690
 H         -8.0300029091       -1.2460030110       -1.0421672789
 H         -7.8204220992       -0.2345388510        0.3796277711
 C         -6.3349320289       -1.7715294107        0.1224915409
 H         -5.7324404789       -2.1904665106       -0.6874161791
 H         -6.9359944187       -2.5848292008        0.5377436609
 C         -5.3876118089       -1.2919490106        1.2294799109
 H         -5.9603296190       -0.7905577707        2.0122575209
 H         -4.9109453787       -2.1754257505        1.6641393908
 H         -7.4430011997        2.1426515091       -0.4629194988
 H         -5.9248573798        2.3727250894       -1.3400785489
 H         -6.2949488494        1.2054493692        1.4475527410
 H         -5.4454944497        2.6908828894        0.9789288910
 O         -3.3833636596        1.6969167598        0.1058681708
 C         -2.1265044495        1.1689410001       -0.1552587593
 O         -1.2930486397        2.0049254703       -0.5520210293
 H          1.6999037705        0.6694641908       -0.9171688196
 C          1.5479559606        0.5775218008        0.1444849004
 C          0.4643042508       -0.1216853395        0.6498878205
 C          0.2997137109       -0.1912550496        2.0321035205
 C          1.1874550309        0.4367421706        2.8823260905
 C          2.2660892407        1.1397519108        2.3731879904
 C          2.4424490706        1.2128333609        0.9974015404
 N          3.5160685704        1.9394614111        0.4586882304
 S          4.4395198604        1.3217221413       -0.7881466997
 O          5.6091184003        2.1715739716       -0.8250991198
 O          3.6680067103        1.2439463812       -2.0014685197
 C          4.8978012108       -0.3103448586       -0.2341420398
 C          4.1331240609       -1.3981267187       -0.6034736898
 C          4.4684122412       -2.6489978687       -0.1090106299
 C          5.5543709413       -2.7896313985        0.7409570600
 C          6.3145949511       -1.6867601984        1.1000961900
 C          5.9823857809       -0.4334321684        0.6128125201
 H          6.5525333007        0.4480001517        0.8578422301
 H          7.1613880512       -1.8000316983        1.7576602499
 H          5.8106078715       -3.7652243885        1.1229196499
 H          3.8794079014       -3.5077709188       -0.3890911299
 H          3.2990708309       -1.2514334889       -1.2693814698
 H          4.1023927604        2.3871923312        1.1476856703
 H          2.9568356306        1.6401175209        3.0348059604
 H          1.0422255809        0.3792175205        3.9505064105
 H         -0.5460458190       -0.7370452997        2.4276674005
 C         -0.5624140591       -0.7932624196       -0.2269335795
 H         -0.6399584889       -1.8470551896        0.0786265305
 C         -0.2449038193       -0.7387377195       -1.7054902195
 C          0.6818955209       -1.7483029493       -2.3114623096
 C         -0.7865829591       -1.8072492196       -2.6053053295
 H         -1.1303144893       -1.5266494096       -3.5896702095
 H         -1.3679703189       -2.5941087797       -2.1470795695
 H          1.0902545211       -2.5037555592       -1.6569740797
 H          1.3521662908       -1.4265207591       -3.0950855996
 H         -0.2234363495        0.2727078905       -2.0962973794
 O         -2.7950489388       -2.2786439301        0.7364683006
