  62
        -98.93584103
 C         -2.4968497823       -1.0145724394        0.5829136579
 C         -2.6190402460        0.2734273206        1.1656443833
 C         -3.9043474726        0.9548944949        0.9808384743
 C         -4.8945007666        0.3352525048        0.3136804633
 C         -6.2745716904        0.8807788108        0.0646906715
 C         -6.3687013149        1.8083326920       -1.1543806789
 C         -5.7317164188        3.1866300920       -0.9732762902
 H         -6.0584143401        3.8035508811       -1.8126743674
 H         -6.1155843431        3.6464461056       -0.0621728316
 C         -4.1968911331        3.1754621600       -0.9384554186
 H         -3.8113799988        3.9709560644       -1.5801660319
 H         -3.8282946911        2.2307762171       -1.3451976972
 C         -3.5916605655        3.3826590872        0.4502444143
 H         -3.8410493370        4.3820089866        0.8141207897
 H         -2.5034837486        3.3177722547        0.3636212866
 C         -4.0439073621        2.3552602564        1.4962721469
 H         -3.3990302508        2.4520185968        2.3733374579
 H         -5.0738104777        2.5502324426        1.7950782768
 H         -7.4292217962        1.9482963010       -1.3756604901
 H         -5.9132523810        1.3063670428       -2.0109748830
 H         -6.6251645149        1.4076287560        0.9525633694
 H         -6.9222311993        0.0185950410       -0.1077759016
 O         -4.7500580062       -0.9090100596       -0.2089791420
 C         -3.5490157128       -1.6062805059       -0.1184954948
 O         -3.5754421100       -2.7105215327       -0.6901174208
 O         -1.6944148929        0.8238840293        1.8244364752
 C         -1.1621894005       -1.7146631466        0.7604261994
 C         -0.2242899733       -1.4108903636       -0.3808331014
 C         -0.6383059483       -1.5134675567       -1.7053176429
 C          0.2405190163       -1.2342045689       -2.7357364464
 C          1.5424011773       -0.8503362157       -2.4675977769
 C          1.9700003684       -0.7539211494       -1.1479715201
 C          1.0834469231       -1.0304384273       -0.1157936328
 H          1.4189613982       -0.9277294300        0.9051730594
 N          3.3040392123       -0.4214788507       -0.8594295144
 S          3.6704467798        0.4816306113        0.5189945560
 O          3.5664440129       -0.3731682123        1.6743979865
 O          2.8921221231        1.6996729233        0.5411184916
 C          5.3858643990        0.8442846223        0.1964346392
 C          6.3155368922       -0.1612411613        0.3847711190
 C          7.6487503521        0.0998190593        0.1122976161
 C          8.0284861582        1.3548174921       -0.3406536889
 C          7.0847348901        2.3543831587       -0.5222377046
 C          5.7488866040        2.0993764295       -0.2531995632
 H          4.9811712373        2.8470670406       -0.3724215411
 H          7.3833463782        3.3298548543       -0.8709516781
 H          9.0670877383        1.5558540974       -0.5507745027
 H          8.3857549849       -0.6739384392        0.2547267593
 H          5.9750751526       -1.1170198535        0.7473060356
 H          3.7962764837       -0.0619948070       -1.6664554802
 H          2.2250141457       -0.6310026419       -3.2744798852
 H         -0.0933116766       -1.3136462517       -3.7594705856
 H         -1.6517309403       -1.8202843867       -1.9159969550
 H         -0.7259319886       -1.2601094256        1.6654667060
 C         -1.2938132472       -3.2087431616        1.0249159518
 C         -0.8766160555       -4.2607792219        0.0461599298
 C         -0.0671041944       -4.0323722333        1.2849833542
 H         -0.0986035699       -4.7714517855        2.0711608707
 H          0.8896557253       -3.5425960114        1.1771392519
 H         -1.4876278634       -5.1475630553       -0.0222734684
 H         -0.4654818788       -3.9427674230       -0.8987109960
 H         -2.1677319497       -3.4345013773        1.6277908267
