  62
        -98.94462811
 C          2.1299994759        1.0680626388       -0.4139822881
 C          3.1885806602        1.2354786103        0.5148638467
 C          4.4288080717        0.5062521891        0.2234620650
 C          4.4960712526       -0.2596624125       -0.8806609768
 C          5.6739336043       -1.1052866920       -1.2673650928
 C          5.5476981487       -2.5254138095       -0.6982299792
 C          5.2059946874       -2.5662382393        0.7913469611
 H          4.2016240447       -2.1617665088        0.9380968927
 H          5.1740205025       -3.6167999416        1.0884365646
 C          6.1940249130       -1.8101494872        1.6907097483
 H          6.4213182408       -2.4312754921        2.5596756751
 H          7.1305110263       -1.6463155141        1.1562957178
 C          5.6731462543       -0.4736682473        2.2226046831
 H          6.3502119151       -0.1348763272        3.0112543464
 H          4.6893436830       -0.6190085216        2.6759456065
 C          5.5668221139        0.6584553499        1.1930531242
 H          6.5148590882        0.7632648249        0.6617548712
 H          5.3737320635        1.5864791186        1.7389643360
 H          6.4878677235       -3.0519257565       -0.8724476094
 H          4.7589448188       -3.0485883157       -1.2440435757
 H          5.7142278609       -1.1624341040       -2.3564464735
 H          6.5863549571       -0.6366814325       -0.9038000208
 O          3.4667091796       -0.3873786873       -1.7544763061
 C          2.2551427680        0.2559031114       -1.5411758588
 O          1.4037530151        0.0281403874       -2.4219864372
 O          3.0991592929        1.9635735594        1.5389906953
 C          0.8166534604        1.7777962132       -0.1245450084
 C         -0.1943025422        0.7402292570        0.2971294415
 C         -0.2364954979        0.3319565927        1.6275185336
 C         -1.1093222333       -0.6593982902        2.0355742363
 C         -1.9561050190       -1.2677414853        1.1255616109
 C         -1.9214854367       -0.8670985198       -0.2037012149
 C         -1.0562352632        0.1414121089       -0.6090389009
 H         -1.0253580199        0.4281916448       -1.6480828384
 N         -2.7694355943       -1.4850724799       -1.1353153690
 S         -4.3573775338       -1.7794215497       -0.7111269992
 O         -4.4341325231       -2.9676569906        0.1027676152
 O         -5.0827589487       -1.8239770440       -1.9612390335
 C         -4.8544585449       -0.3595880402        0.2485914146
 C         -4.8158904721        0.8801164439       -0.3585920983
 C         -5.1703322474        1.9983936090        0.3778859372
 C         -5.5535331654        1.8590296940        1.7032883186
 C         -5.5908173118        0.6073843765        2.2973188756
 C         -5.2368388868       -0.5148486605        1.5652350223
 H         -5.2511443938       -1.5062892031        1.9878889519
 H         -5.8908835023        0.5017778623        3.3274114644
 H         -5.8256780008        2.7321563992        2.2750351298
 H         -5.1435438749        2.9730187215       -0.0823124706
 H         -4.5185888734        0.9531907413       -1.3923600607
 H         -2.6825415268       -1.1285930353       -2.0748507491
 H         -2.6274764817       -2.0577393762        1.4205303756
 H         -1.1285880819       -0.9668443187        3.0700592967
 H          0.4375700388        0.7931805280        2.3355778295
 H          1.0231476413        2.4209110979        0.7413268121
 C          0.3592657450        2.6476750692       -1.2762598528
 C         -0.7115043502        3.6690629263       -1.0388355871
 C          0.7029338821        4.1059100185       -1.2711881484
 H          0.9513165253        4.5787929362       -2.2096361158
 H          1.2666886045        4.4838679180       -0.4309576866
 H         -1.4371328109        3.8461460710       -1.8177890901
 H         -1.1079380661        3.7490498915       -0.0381259632
 H          0.3766314370        2.1426019487       -2.2339115244
