  62
        -98.93474354
 C         -2.5532720619       -0.5315096842        0.4032441429
 C         -2.8493841781        0.8465508140        0.2384206286
 C         -4.1231856304        1.1673824325       -0.4121282073
 C         -4.9193303284        0.1709465559       -0.8393903007
 C         -6.2386924044        0.3303014546       -1.5450727541
 C         -7.4292470643        0.5478240855       -0.6011879930
 C         -7.4902400863        1.9241420680        0.0626150764
 H         -8.4785142519        2.0167624508        0.5174468290
 H         -7.4096899743        2.6981741342       -0.7012077932
 C         -6.4258653090        2.1533675543        1.1447483697
 H         -6.0081845974        1.1923628442        1.4537982935
 H         -6.8927929740        2.5976195612        2.0267031577
 C         -5.2822577661        3.0765718924        0.7242385141
 H         -4.5705591269        3.1388166457        1.5513399278
 H         -5.6708939680        4.0802042025        0.5378823344
 C         -4.5189608637        2.6089886513       -0.5219371695
 H         -3.6030622898        3.1989890382       -0.6057280818
 H         -5.1220072142        2.7704580016       -1.4152826775
 H         -7.4110070825       -0.2276936721        0.1680622435
 H         -8.3397576742        0.4108523136       -1.1891217185
 H         -6.1776719722        1.1575592970       -2.2528352631
 H         -6.4059142185       -0.5934728791       -2.1031676068
 O         -4.5906559405       -1.1377321638       -0.6889664577
 C         -3.4127734419       -1.5291044303       -0.0592620269
 O         -3.2754107379       -2.7636690596        0.0092434513
 H          1.1437050341        0.3932215452        1.0933818560
 C          1.0469700437       -0.2807172775        0.2527992530
 C         -0.1272203778       -1.0012042647        0.0922419652
 C         -0.2458455779       -1.8493661728       -1.0042054524
 C          0.7916199885       -1.9694876695       -1.9109375185
 C          1.9598206201       -1.2451071238       -1.7505111101
 C          2.0866358823       -0.3909961415       -0.6633822594
 N          3.2573014721        0.3723111370       -0.5073796077
 S          4.7359741845       -0.4045877518       -0.7667236668
 O          4.9757842168       -0.4724826207       -2.1860753867
 O          4.7592402797       -1.6663597268       -0.0609009899
 C          5.8615850951        0.7540459353       -0.0159634631
 C          6.2651806978        0.5551406632        1.2907517948
 C          7.1206624939        1.4758560285        1.8751126184
 C          7.5530375417        2.5745696922        1.1477315839
 C          7.1390664062        2.7603131649       -0.1630339195
 C          6.2846504292        1.8431925146       -0.7538916573
 H          5.9441327714        1.9415897662       -1.7713827540
 H          7.4792979430        3.6148501384       -0.7253883191
 H          8.2191907932        3.2892418840        1.6046524548
 H          7.4463681845        1.3329620440        2.8928791627
 H          5.9124164152       -0.3185012030        1.8152724096
 H          3.2651386924        0.8839260315        0.3646799693
 H          2.7743244407       -1.3341438933       -2.4510604000
 H          0.6900983910       -2.6355520807       -2.7550380792
 H         -1.1556837860       -2.4161912027       -1.1338261206
 C         -1.2432075638       -0.8596408911        1.0964041670
 H         -1.0226315472        0.0319090890        1.7052026709
 C         -1.3394734504       -2.0414114344        2.0508222875
 C         -0.6920660479       -3.3677725893        1.8061738745
 C         -0.1426728183       -2.4531257595        2.8568346032
 H         -0.2798273116       -2.7111881961        3.8958915920
 H          0.7941994414       -1.9607197368        2.6417774194
 H         -0.1223874860       -3.5021125967        0.9001832800
 H         -1.2337378785       -4.2501211066        2.1107128146
 H         -2.2978968468       -2.0685112409        2.5594959120
 O         -2.0805818135        1.7669206006        0.6266198789
