  62
        -98.93819348
 C         -0.7868137193       -1.2170472389        0.7202395592
 C         -1.1278438694       -0.7778767681       -0.5809471005
 C         -2.0718501688        0.3534519024       -0.6599728298
 C         -2.4906658583        0.9408887221        0.4729543305
 C         -3.5183274477        2.0295742726        0.6114105912
 C         -4.9107901879        1.4246177832        0.8615871212
 C         -5.6963388784        1.0748318341       -0.4018734488
 H         -6.5969169186        0.5425217345       -0.0869489989
 H         -6.0164893480        1.9969658745       -0.8914176584
 C         -4.9492689490        0.2132025742       -1.4235662193
 H         -4.4089606693       -0.5835899063       -0.9090470798
 H         -5.6935687894       -0.2646604951       -2.0636865294
 C         -3.9818433187        1.0189350541       -2.3035605392
 H         -4.1973521982        2.0807405642       -2.1862441487
 H         -4.1671010391        0.7798502447       -3.3526662392
 C         -2.4883959988        0.7612844132       -2.0461864096
 H         -2.1437714994       -0.0542905967       -2.6893760900
 H         -1.9159200184        1.6484341030       -2.3330796593
 H         -4.7838960483        0.5295806728        1.4763303308
 H         -5.5036249275        2.1351760432        1.4412670816
 H         -3.2368435472        2.6221350120        1.4836388114
 H         -3.5254436775        2.6687092930       -0.2658128685
 O         -2.0521039882        0.5540394313        1.7030310003
 C         -1.2019598688       -0.5242101092        1.8589537596
 O         -0.8854716587       -0.7612543099        3.0428892795
 H          1.7718260611       -0.3751275302        0.6968178991
 C          2.0582412006       -1.1702412500        0.0238789787
 C          1.3068186100       -2.3390414697        0.0065447383
 C          1.6881884993       -3.3627788495       -0.8496726122
 C          2.7930747892       -3.2087664697       -1.6692814323
 C          3.5336086598       -2.0420249901       -1.6546086219
 C          3.1557593105       -1.0078680302       -0.8035368814
 N          3.8530581011        0.2033327694       -0.8029636010
 S          3.7013239119        1.3531538089        0.3824456495
 O          4.7300107124        2.3205103786        0.0628990398
 O          3.7713193919        0.7819310183        1.7077844593
 C          2.1084634223        2.0971764299        0.1038407402
 C          1.7706705822        2.4751320606       -1.1798509196
 C          0.5589015025        3.1116108614       -1.3925262291
 C         -0.2870918772        3.3640890913       -0.3238140088
 C          0.0654070029        2.9762330006        0.9590385309
 C          1.2736236526        2.3349116198        1.1769786004
 H          1.5769947526        2.0069418692        2.1597263202
 H         -0.5932888069        3.1642726005        1.7919998911
 H         -1.2257263669        3.8687427019       -0.4877517884
 H          0.2809247125        3.4132846619       -2.3898034689
 H          2.4549262820        2.2695261206       -1.9860946098
 H          4.7117682710        0.2430303592       -1.3279385312
 H          4.3893010497       -1.9223465502       -2.3010397621
 H          3.0791757187       -4.0097696395       -2.3341155227
 H          1.1112030588       -4.2716305592       -0.8939941825
 C          0.1255705201       -2.4104345195        0.9429448485
 H          0.5122240304       -2.2857267301        1.9691304885
 C         -0.5930983806       -3.7517768491        0.9097275481
 C         -2.0498462506       -3.8575377185        1.2472748383
 C         -1.5868943910       -4.0972073981       -0.1567216019
 H         -1.6032656116       -5.1092597079       -0.5339825923
 H         -1.7940360307       -3.3484757876       -0.9043748015
 H         -2.5810596001       -2.9421947483        1.4654051588
 H         -2.3786882109       -4.7014290886        1.8352464380
 H          0.0383667390       -4.5584095396        1.2696272476
 O         -0.6908101098       -1.3067893779       -1.6350836908
