  62
        -98.94047068
 C         -2.3157258041       -0.7975912180        0.1143552673
 C         -3.0751577573       -0.1296925437        1.1113795745
 C         -3.9520391379        0.9511976635        0.6507223962
 C         -3.9838152787        1.2693861849       -0.6556424625
 C         -4.8031030116        2.3644233090       -1.2830480451
 C         -6.2504253487        1.9614761534       -1.5968404469
 C         -7.1648408384        1.8201543496       -0.3793409844
 H         -7.0997387593        2.7227167351        0.2290229050
 H         -8.1882103574        1.7528298304       -0.7538333447
 C         -6.8755942559        0.5885265098        0.4901741486
 H         -7.8143157517        0.0853194703        0.7325738314
 H         -6.2689069018       -0.1222993653       -0.0757605460
 C         -6.1719832121        0.8959579680        1.8120835232
 H         -5.9838252225       -0.0489860409        2.3279660575
 H         -6.8268471310        1.4999605415        2.4439066363
 C         -4.8315990763        1.6266083593        1.6590950676
 H         -4.9997814688        2.6666276566        1.3801937671
 H         -4.3141864784        1.5999866800        2.6210748469
 H         -6.2385075324        1.0223964776       -2.1550281263
 H         -6.6676899502        2.7308400987       -2.2506091688
 H         -4.3073222563        2.6249784097       -2.2207388024
 H         -4.8009653899        3.2403989537       -0.6336765686
 O         -3.2293609551        0.6204219486       -1.5799128233
 C         -2.3875270009       -0.4301357247       -1.2296183117
 O         -1.7781126715       -0.9174137961       -2.2013299470
 O         -3.0211698642       -0.4292295418        2.3334645232
 C         -1.4205262012       -1.9276823388        0.5912497538
 C         -0.0168934586       -1.4444998021        0.8550028700
 C          0.6323748984       -1.7466011548        2.0460131492
 C          1.9270751967       -1.3120516313        2.2713143540
 C          2.5972740531       -0.5655851579        1.3188962212
 C          1.9574431934       -0.2578077408        0.1250893557
 C          0.6609256119       -0.6985454342       -0.0992892651
 H          0.1722567970       -0.4672097002       -1.0347426723
 N          2.6191361245        0.5157300933       -0.8441064957
 S          4.1718707201        0.0639028277       -1.2947499864
 O          4.3575752959        0.6082934715       -2.6217497535
 O          4.3714088037       -1.3596122028       -1.1498112703
 C          5.2162784094        0.9473526014       -0.1549058869
 C          6.1746652552        0.2681743942        0.5714982938
 C          6.9828449255        0.9801484699        1.4444131344
 C          6.8195520765        2.3508157472        1.5738721134
 C          5.8538569924        3.0183294818        0.8350456081
 C          5.0436418154        2.3129254312       -0.0401671752
 H          4.2829926695        2.7931484856       -0.6330600096
 H          5.7291355338        4.0842022318        0.9387771877
 H          7.4482086003        2.9025960523        2.2547679688
 H          7.7342215440        0.4633381813        2.0194600273
 H          6.2605553893       -0.7989941516        0.4426944632
 H          2.0524122551        0.7060795431       -1.6583498995
 H          3.6049181381       -0.2236152616        1.4893169817
 H          2.4195783304       -1.5538469269        3.2006214018
 H          0.1115877873       -2.3171044929        2.8009251086
 H         -1.8495376364       -2.2308412629        1.5594867250
 C         -1.4594014386       -3.1468511264       -0.3211162238
 C         -0.3118600341       -3.5866734396       -1.1753183193
 C         -0.6862265499       -4.3813157537        0.0376303413
 H         -1.1550860084       -5.3442366340       -0.0962672858
 H         -0.0261947826       -4.3235315046        0.8899607071
 H         -0.5408153604       -3.9835341361       -2.1528112842
 H          0.6023939860       -3.0136853437       -1.1489462619
 H         -2.4483237121       -3.3007555941       -0.7418942780
