  62
        -98.93321635
 C         -2.3737940931       -1.0846195714        0.3285487930
 C         -2.5579555420        0.1259376056        1.0403131995
 C         -3.7544567407        0.9279310738        0.7195211945
 C         -4.6068691829        0.4676982313       -0.2149123641
 C         -5.8680598755        1.1088668228       -0.7309529135
 C         -5.5923126296        2.2731081246       -1.6949771881
 C         -4.5012975595        3.2378377351       -1.2386546976
 H         -4.3335695916        3.9553797731       -2.0461698808
 H         -3.5698445422        2.6860269736       -1.0981154937
 C         -4.8200727725        4.0275803834        0.0286911985
 H         -5.7407446162        4.5949544000       -0.1243094427
 H         -4.0083019361        4.7446274992        0.1756471112
 C         -4.9619056910        3.2060765457        1.3122753477
 H         -5.9305120327        2.7160299894        1.3625522800
 H         -4.9244684728        3.9060880796        2.1520728248
 C         -3.8483337701        2.1893711955        1.5438541762
 H         -3.8921301510        1.8540221723        2.5872921027
 H         -2.8771640543        2.6887673319        1.4461148612
 H         -6.5238702077        2.8200856341       -1.8496085805
 H         -5.2839208375        1.8515178488       -2.6546879232
 H         -6.4884307681        1.4329788614        0.0992561557
 H         -6.4135807551        0.3319950999       -1.2710697699
 O         -4.3921568049       -0.7057928711       -0.8725760942
 C         -3.2906284289       -1.5072941365       -0.6335372365
 O         -3.2667447343       -2.5432274468       -1.3248875855
 O         -1.7541207598        0.5301261556        1.9254357957
 C         -1.1387812088       -1.9075398596        0.6537539201
 C         -0.1050375071       -1.7691904106       -0.4385137432
 C         -0.1568377532       -2.5214660711       -1.6075208741
 C          0.8161180879       -2.3703868270       -2.5786859397
 C          1.8665658085       -1.4885622860       -2.3975692748
 C          1.9200224863       -0.7221256197       -1.2390049796
 C          0.9318460080       -0.8603211375       -0.2747749143
 H          0.9806395204       -0.2522894351        0.6178939752
 N          2.9603944160        0.1980431913       -1.0348459404
 S          3.5458517586        0.4047987234        0.5359244621
 O          3.5963517084       -0.8698580417        1.2154131951
 O          2.7878730151        1.4474731860        1.1808359884
 C          5.1988219929        0.9837661441        0.1979732005
 C          6.2374229298        0.0721273805        0.1682280758
 C          7.5162426308        0.5216528281       -0.1208867109
 C          7.7332793314        1.8673077778       -0.3766634725
 C          6.6810660487        2.7704624043       -0.3425876965
 C          5.3999861851        2.3279094419       -0.0531542504
 H          4.5533377168        2.9929497398       -0.0052852315
 H          6.8541271119        3.8162692057       -0.5387664313
 H          8.7293251120        2.2151158177       -0.6006759054
 H          8.3365761601       -0.1774479182       -0.1444312494
 H          6.0224827310       -0.9622605345        0.3834033049
 H          3.7073595763        0.1057154709       -1.7095861183
 H          2.6342408820       -1.3860612198       -3.1496077764
 H          0.7630473319       -2.9582287584       -3.4826384442
 H         -0.9768856253       -3.2044797398       -1.7591507459
 H         -0.7195218492       -1.4468436687        1.5593983060
 C         -1.4571137828       -3.3581948288        0.9573675992
 C         -0.4147448681       -4.1979555712        1.6308626985
 C         -1.6445690420       -3.7846139473        2.3807868539
 H         -2.3917341688       -4.5326367499        2.5997913674
 H         -1.5451793533       -3.0288253246        3.1465948896
 H         -0.3148965520       -5.2312032017        1.3361088554
 H          0.5201897200       -3.7194946375        1.8842974252
 H         -2.0846448281       -3.8302636216        0.2127543621
