  62
        -98.93813792
 C          2.0502061748        1.6486488828       -0.2472297944
 C          2.4580030622        0.6799486980       -1.1981829411
 C          3.6685457395       -0.0863616538       -0.8449428034
 C          4.3265313816        0.1847981362        0.2949026964
 C          5.5246995325       -0.5656225225        0.7985262937
 C          5.1052310447       -1.7251656928        1.7129867943
 C          4.0035192343       -2.6087076765        1.1266946580
 H          3.8113862062       -3.4092043144        1.8445825593
 H          3.0819152881       -2.0270870672        1.0438092376
 C          4.3399440456       -3.2199786625       -0.2407061745
 H          4.0496432127       -4.2727766721       -0.2342604483
 H          5.4168727367       -3.1809751254       -0.4091447916
 C          3.6199872264       -2.5687998233       -1.4234357698
 H          3.7588614436       -3.2083418323       -2.2995640575
 H          2.5455363111       -2.5252006294       -1.2221303316
 C          4.0985483238       -1.1614753483       -1.8029311511
 H          5.1837172176       -1.1617053166       -1.9237744060
 H          3.6438732672       -0.9057181597       -2.7646937171
 H          5.9859646767       -2.3337638605        1.9257511957
 H          4.7426608613       -1.3087875943        2.6556098623
 H          6.1497263531        0.1255195523        1.3664124852
 H          6.0937762338       -0.9436027416       -0.0484280705
 O          3.9355319993        1.1590665763        1.1559581154
 C          2.7810236400        1.8846945420        0.9214990568
 O          2.5141148218        2.7194640273        1.8093803938
 O          1.8746801513        0.4481496702       -2.2866716213
 C          0.7765222160        2.4740242565       -0.3524671687
 C         -0.2883736634        1.8613005238        0.5235507009
 C         -1.0246238988        2.6509211533        1.4000322235
 C         -1.9785349722        2.0886155933        2.2290060477
 C         -2.2282632332        0.7290701823        2.1842281829
 C         -1.5013884302       -0.0692794060        1.3089079179
 C         -0.5338255399        0.4950473834        0.4903792037
 H          0.0278664626       -0.1416634165       -0.1773039168
 N         -1.7415169862       -1.4596652452        1.2229717291
 S         -2.5035677869       -1.9736815660       -0.1796925646
 O         -2.7404474024       -3.3879628796        0.0042769250
 O         -1.7228830231       -1.5850439748       -1.3231422686
 C         -4.0586915995       -1.0973907355       -0.1644164606
 C         -4.0959140761        0.2049327033       -0.6217793990
 C         -5.2862115104        0.9099980726       -0.5372154090
 C         -6.4111090256        0.3053692728        0.0026808715
 C         -6.3577729960       -1.0036941500        0.4572345993
 C         -5.1696005250       -1.7124264963        0.3793350497
 H         -5.0819623814       -2.7329165233        0.7159249872
 H         -7.2349459186       -1.4724814668        0.8733007347
 H         -7.3350219084        0.8579808627        0.0671888774
 H         -5.3272353928        1.9271599893       -0.8920031873
 H         -3.2037480752        0.6407608921       -1.0417066951
 H         -2.2441556160       -1.8282978995        2.0194833628
 H         -2.9718935399        0.2834955374        2.8280189496
 H         -2.5334052077        2.7130050183        2.9119393637
 H         -0.8256583843        3.7114288288        1.4433892781
 H          1.0243981581        3.4560450034        0.0837273530
 C          0.2955046769        2.7311963740       -1.7712697379
 C         -0.7350180014        1.8948779593       -2.4604968372
 C         -1.0819458604        3.2794138999       -2.0077334773
 H         -1.2094061302        4.0475262610       -2.7553474872
 H         -1.7310581821        3.3811468347       -1.1508015397
 H         -0.5959766471        1.7080206028       -3.5145484893
 H         -1.1392813206        1.0420275671       -1.9371377268
 H          1.0921494925        3.1179379516       -2.3983500575
