  62
        -98.94063091
 C          1.3009501970        1.3716672439        0.5380744248
 C          1.6269589307        0.5497065380       -0.5657537062
 C          2.4584841750       -0.6360791173       -0.2778548612
 C          2.7798781959       -0.9259638450        0.9962408591
 C          3.5519967818       -2.0847718383        1.5930591844
 C          4.3792555317       -3.0101344387        0.7048012206
 C          5.6111656635       -2.3565234194        0.0782767097
 H          6.0557937069       -3.0656691590       -0.6232360867
 H          6.3426724611       -2.1690525821        0.8684952391
 C          5.3635157573       -1.0326467687       -0.6409052365
 H          6.3258192356       -0.6698160892       -1.0122374069
 H          4.9954024812       -0.2915998767        0.0716600454
 C          4.4045887765       -1.1016327466       -1.8275436914
 H          4.7535447355       -1.8543442041       -2.5370974377
 H          4.4326122502       -0.1308393668       -2.3295098061
 C          2.9373283161       -1.4024799550       -1.4771804670
 H          2.7786897661       -2.4701069185       -1.3490188277
 H          2.3155444993       -1.0709343257       -2.3134918167
 H          3.7528516404       -3.4591186670       -0.0602788417
 H          4.7284207373       -3.8253969368        1.3443578522
 H          2.8132486155       -2.6893387941        2.1315346867
 H          4.2028480923       -1.6481888066        2.3574409539
 O          2.3543604980       -0.1518261239        2.0394774663
 C          1.6374011006        1.0135474181        1.8416304469
 O          1.3507182233        1.6248114435        2.8925716728
 O          1.2509700945        0.7849398108       -1.7412537454
 C          0.4945367596        2.6458400530        0.3436593921
 C         -0.9037093292        2.2651485259       -0.0786678252
 C         -1.4789510057        2.6239992138       -1.2890747482
 C         -2.7509549005        2.1835931209       -1.6167630102
 C         -3.4729185663        1.3848609131       -0.7496271631
 C         -2.9073632067        1.0281488471        0.4684750482
 C         -1.6353432047        1.4674289305        0.7940163214
 H         -1.1916260004        1.1837271516        1.7407112800
 N         -3.6272912352        0.1960677815        1.3523086814
 S         -4.0952121108       -1.2820966817        0.7131946040
 O         -5.2813797602       -1.0986179541       -0.0840790384
 O         -4.2256898917       -2.1701108566        1.8467799118
 C         -2.7337982237       -1.7800636825       -0.3256158846
 C         -2.8667877565       -1.7527661411       -1.6984108975
 C         -1.7771820328       -2.0954590228       -2.4826187202
 C         -0.5800938730       -2.4538980855       -1.8840893013
 C         -0.4616942027       -2.4743847765       -0.5031849580
 C         -1.5462166002       -2.1299482916        0.2855424852
 H         -1.4877404218       -2.1385169651        1.3630364899
 H          0.4732438012       -2.7446243144       -0.0385681771
 H          0.2682486085       -2.7158819992       -2.4956732148
 H         -1.8619337593       -2.0763319467       -3.5570823818
 H         -3.8158197971       -1.4695885284       -2.1231452862
 H         -3.1520918865        0.0535956309        2.2324533762
 H         -4.4596905781        1.0257660298       -0.9933211940
 H         -3.1843370731        2.4643556356       -2.5643307479
 H         -0.9281737691        3.2371848460       -1.9824355758
 H          0.4292501509        3.1149467065        1.3359166249
 C          1.1898734302        3.5994971064       -0.6025642204
 C          0.8606989051        5.0603990772       -0.5583123082
 C          2.1845112489        4.5745176625       -0.0512214588
 H          3.0704301858        4.7899638151       -0.6295156255
 H          2.3529987347        4.5667827898        1.0161771716
 H          0.8389877181        5.6136728605       -1.4847589653
 H          0.1292010264        5.3858637169        0.1659801673
 H          1.4113114831        3.1536307233       -1.5643026626
