  62
        -98.93285833
 C         -2.3997195325       -1.2110966716        0.0052380279
 C         -2.5613005610        0.0233617114       -0.6672497103
 C         -3.9429399153        0.5189503626       -0.7802795898
 C         -4.9477126003       -0.2133240936       -0.2659465545
 C         -6.3933798461        0.1941104810       -0.2288020873
 C         -6.6198375208        1.2261800225        0.8946104686
 C         -7.0323184900        2.6134698015        0.4022633476
 H         -8.0807959653        2.5849912053        0.0984280130
 H         -6.9529481197        3.2979097368        1.2494927360
 C         -6.2202991957        3.1742298054       -0.7691888442
 H         -6.4433649944        4.2416091437       -0.8285596050
 H         -6.5692669764        2.7313575265       -1.7031420385
 C         -4.6993729445        2.9938615339       -0.6795147781
 H         -4.2263554903        3.9014766338       -1.0599587796
 H         -4.3839413782        2.8834797857        0.3582009545
 C         -4.1431758987        1.8200402547       -1.5071713453
 H         -4.7785060066        1.6560021094       -2.3820251659
 H         -3.1470274468        2.0903208978       -1.8702918687
 H         -5.6996612791        1.3044731417        1.4774311921
 H         -7.3914159242        0.8609968257        1.5740327561
 H         -6.6837818709        0.6065144033       -1.1924177054
 H         -6.9795933515       -0.7057954314       -0.0422945289
 O         -4.7504525081       -1.4002204002        0.3660793671
 C         -3.4790758357       -1.9257305242        0.5228734828
 O         -3.4416759360       -3.0131277221        1.1336660666
 H          1.4933142077       -0.8293935019       -0.5030997041
 C          1.1188721556       -0.4402916013        0.4284808981
 C         -0.1227180799       -0.8233329314        0.9080449913
 C         -0.5630999915       -0.2932431589        2.1188091282
 C          0.2168414729        0.6025891694        2.8230709477
 C          1.4580515991        0.9811469261        2.3418492525
 C          1.9064706300        0.4593756316        1.1347200647
 N          3.1470626793        0.8506194869        0.6069410116
 S          4.0484813671       -0.2595360286       -0.2869716983
 O          3.5532147666       -0.2940010585       -1.6397617053
 O          4.1047244759       -1.5273122726        0.4060140430
 C          5.6448444981        0.5353493078       -0.2552545962
 C          5.8627622216        1.6085928823       -1.0988972925
 C          7.0899469290        2.2510102956       -1.0619397910
 C          8.0735569867        1.8122354279       -0.1876444623
 C          7.8412473515        0.7325041005        0.6508235588
 C          6.6150569526        0.0866068555        0.6205159144
 H          6.3914408192       -0.7609366088        1.2482416525
 H          8.6090537653        0.3918034786        1.3266163470
 H          9.0280069019        2.3138619500       -0.1617480002
 H          7.2751363758        3.0892596209       -1.7140931479
 H          5.0721386511        1.9076886998       -1.7673512471
 H          3.7208878471        1.3482083860        1.2738235456
 H          2.0684737562        1.6813836586        2.8915572357
 H         -0.1402383810        1.0058508087        3.7589422299
 H         -1.5313486335       -0.5946869365        2.4965641645
 C         -1.0121887082       -1.8015816720        0.1797959762
 H         -1.1358343602       -2.6885419399        0.8192115193
 C         -0.4574912811       -2.2433701579       -1.1578781694
 C          0.5717991696       -3.3300501109       -1.2224885092
 C         -0.8263218946       -3.5925122727       -1.6938489200
 H         -1.0029713007       -3.6956049793       -2.7539177776
 H         -1.4657581875       -4.2111186926       -1.0808028969
 H          0.8888407032       -3.7736818502       -0.2903765892
 H          1.3614025485       -3.2474133927       -1.9547901670
 H         -0.3792996559       -1.4274278531       -1.8680492413
 O         -1.6026433217        0.6810366580       -1.1507753717
