  62
        -98.94329853
 C          1.9026070932        0.5726672934       -0.7650904921
 C          2.2684778619        0.1259182543        0.5277338493
 C          3.7054563710        0.1747471864        0.8358006791
 C          4.5636717202        0.6423315998       -0.0892162361
 C          6.0540619313        0.7045886574        0.0765061848
 C          6.7252852230       -0.5767759989       -0.4371284437
 C          6.0893517310       -1.8614796950        0.0936683190
 H          5.0752845695       -1.9469483029       -0.3032415907
 H          6.6637745139       -2.6987523585       -0.3086028397
 C          6.0434553595       -1.9610222912        1.6248212211
 H          6.3627854921       -2.9627073777        1.9202207839
 H          6.7489548895       -1.2543813645        2.0634054558
 C          4.6576395433       -1.7375221440        2.2331452470
 H          4.6937181469       -2.0438827587        3.2819527503
 H          3.9292511286       -2.3780576402        1.7298668184
 C          4.1367121836       -0.2951863080        2.1966464166
 H          3.2420814892       -0.2484298395        2.8245439806
 H          4.8869474175        0.3776187633        2.6172279049
 H          7.7805277321       -0.5484547714       -0.1593886965
 H          6.6611002623       -0.5878822430       -1.5276786147
 H          6.2913927520        0.8553520102        1.1278391707
 H          6.4281565024        1.5547312304       -0.4965808682
 O          4.1708978714        1.0772064055       -1.3144539692
 C          2.8363325435        1.0477359799       -1.6849481640
 O          2.6112257209        1.4716282905       -2.8373486958
 O          1.4408398220       -0.2877600697        1.3801835136
 C          0.4448034456        0.5529346888       -1.1834388885
 C         -0.3998416170        1.3797163929       -0.2436516615
 C          0.1002403102        2.5811140786        0.2514918653
 C         -0.6530236769        3.3631363992        1.1047698582
 C         -1.9329220749        2.9780706692        1.4626062609
 C         -2.4508988727        1.7922608188        0.9585337661
 C         -1.6831933732        0.9978293824        0.1173179815
 H         -2.1040802426        0.0810726322       -0.2609872113
 N         -3.7441761944        1.3722943076        1.3029690934
 S         -4.7390760452        0.6985582532        0.1387823509
 O         -4.4770275376        1.2478337111       -1.1709254574
 O         -6.0800948672        0.8911496758        0.6499641301
 C         -4.3679535642       -1.0422422372        0.1637330024
 C         -4.1074523723       -1.6582996454        1.3717253518
 C         -3.8687198647       -3.0231891436        1.3880253504
 C         -3.9035439880       -3.7472081556        0.2057974626
 C         -4.1730468600       -3.1148665270       -0.9979581520
 C         -4.4076507956       -1.7486764431       -1.0219040447
 H         -4.6084737953       -1.2151175256       -1.9372866146
 H         -4.2000268435       -3.6786505732       -1.9170946543
 H         -3.7185588681       -4.8097626678        0.2222090810
 H         -3.6558596403       -3.5179506319        2.3219888840
 H         -4.0856601776       -1.0664501401        2.2713861679
 H         -4.2512042573        2.0073092647        1.9022518730
 H         -2.5251998702        3.5902798951        2.1257614091
 H         -0.2442152729        4.2858255511        1.4887382913
 H          1.0955156745        2.8919424550       -0.0365493176
 H          0.4046889011        1.0289354383       -2.1751085893
 C         -0.0321456999       -0.8799435470       -1.3123760517
 C         -1.0672031078       -1.2513319831       -2.3298115858
 C          0.3600404736       -1.6619590762       -2.5287281984
 H          0.6184689264       -2.7036122099       -2.4124059910
 H          0.9430572059       -1.1479359558       -3.2794933791
 H         -1.7869825763       -2.0140186231       -2.0733568755
 H         -1.4635663562       -0.4630904227       -2.9526605311
 H         -0.0393545957       -1.4003221971       -0.3613489152
