  62
        -98.93971604
 C         -2.4895491857       -0.9836277135       -0.0783128726
 C         -3.6992627345       -1.0828930864        0.6492282266
 C         -4.8907676741       -0.5286289203       -0.0065469299
 C         -4.7720457801        0.0215735861       -1.2289881475
 C         -5.8910311730        0.6750892632       -1.9861188058
 C         -5.9634685250        2.1781402873       -1.6824259701
 C         -5.9376305164        2.5092955127       -0.1902413167
 H         -4.9645644753        2.2292063668        0.2201294266
 H         -6.0240109351        3.5940369885       -0.0963292522
 C         -7.0468733880        1.8350448133        0.6292580833
 H         -7.4813749081        2.5746208818        1.3051289574
 H         -7.8430409231        1.4952987716       -0.0340780240
 C         -6.5747959293        0.6649895336        1.4943577415
 H         -7.3810851040        0.4064829912        2.1860012667
 H         -5.7167875842        0.9768268598        2.0955001247
 C         -6.1939087476       -0.6136497988        0.7374339692
 H         -6.0654901087       -1.4103617195        1.4760376805
 H         -7.0047038994       -0.8974630150        0.0635655147
 H         -5.1097499249        2.6685768280       -2.1558958027
 H         -6.8757963836        2.5771554996       -2.1294451157
 H         -5.7097827488        0.5379603088       -3.0534207228
 H         -6.8310889073        0.1945489463       -1.7221545741
 O         -3.5951514841        0.0873256777       -1.9020749761
 C         -2.4230964265       -0.4027605605       -1.3446906395
 O         -1.4167178539       -0.2696586223       -2.0658474846
 H          1.4026561933       -1.3680679681       -0.3368750884
 C          1.0810472622       -0.4803937095        0.1849240375
 C         -0.2079110736       -0.4025321691        0.6856538835
 C         -0.5888237972        0.7542922598        1.3615404422
 C          0.2903381005        1.8086494245        1.5113295543
 C          1.5704551616        1.7358699606        0.9898563162
 C          1.9650781497        0.5843302814        0.3242312278
 N          3.2565387957        0.5048709142       -0.2249647006
 S          4.5422885628        1.1135039025        0.6837280542
 O          4.4547665794        0.6400155083        2.0472968745
 O          4.5870049105        2.5447707209        0.5174920370
 C          5.9271495048        0.3643840142       -0.1502410548
 C          6.4935062909       -0.7830742797        0.3716402217
 C          7.5541490278       -1.3715409520       -0.2991965331
 C          8.0251489892       -0.8073416473       -1.4751626442
 C          7.4458883846        0.3446193843       -1.9866477911
 C          6.3859944995        0.9388905582       -1.3205321258
 H          5.9107417232        1.8383270375       -1.6757748809
 H          7.8164759200        0.7809101154       -2.9001831459
 H          8.8507044059       -1.2669699948       -1.9952917244
 H          8.0082555751       -2.2656033916        0.0968652158
 H          6.0998000949       -1.1816680796        1.2929131303
 H          3.4630612552       -0.4160314287       -0.5868534023
 H          2.2664643898        2.5522116531        1.0967943636
 H         -0.0214395545        2.6992854236        2.0367815763
 H         -1.5897463298        0.8150636814        1.7676363305
 C         -1.2130274328       -1.5191820060        0.5448180304
 H         -1.4979910209       -1.8491420982        1.5549087013
 C         -0.7047743088       -2.7154178671       -0.2312403562
 C          0.1419465935       -3.7489705973        0.4483422413
 C         -1.2730018958       -4.0680699934        0.0721886507
 H         -1.4495606697       -4.7485489863       -0.7471995907
 H         -2.0120095491       -4.1301423161        0.8575161479
 H          0.9367869754       -4.2166276652       -0.1130493416
 H          0.3677416449       -3.6002195149        1.4935499117
 H         -0.4984190200       -2.4817756965       -1.2697862190
 O         -3.7776027998       -1.6071921026        1.7932730957
