  62
        -98.94825588
 C         -1.1697060734       -1.2046083080       -0.0135040969
 C         -1.9396461633       -0.6751156034        1.0487059290
 C         -2.5855758422        0.6190783335        0.7921198088
 C         -2.4022983864        1.2212184296       -0.3971104674
 C         -3.0378100085        2.5173349046       -0.8081762993
 C         -4.3799291026        2.2794953677       -1.5143628098
 C         -5.3146499087        1.3339223604       -0.7602133678
 H         -6.2409210011        1.2650698434       -1.3345629559
 H         -4.8727345177        0.3351307155       -0.7409641250
 C         -5.6358257736        1.7712763233        0.6757567565
 H         -5.4016540848        2.8288325839        0.8032043620
 H         -6.7079184562        1.6537716372        0.8468875419
 C         -4.9218325221        0.9619469680        1.7602019209
 H         -5.0773333079       -0.1054748770        1.5838157037
 H         -5.3795418779        1.2040281364        2.7231942311
 C         -3.4142361224        1.2117914860        1.8963626428
 H         -3.2233781441        2.2834360729        1.9891820561
 H         -3.0765622421        0.7267438294        2.8174229630
 H         -4.8712036623        3.2439166804       -1.6548840598
 H         -4.1820422787        1.8509623527       -2.4993657838
 H         -3.1831251735        3.1385467965        0.0736671809
 H         -2.3621971133        3.0328167730       -1.4928940437
 O         -1.6429511603        0.6892413914       -1.3881066473
 C         -0.9983447421       -0.5304699528       -1.2216428355
 O         -0.3214259999       -0.8903456441       -2.2014074561
 H          1.0260170596       -0.7155744821        1.4232038207
 C          1.6298228596       -1.3497304493        0.7897856967
 C          1.0258554661       -2.3611106554        0.0511206051
 C          1.8260864805       -3.1737580745       -0.7412246640
 C          3.1933291773       -2.9668325048       -0.7999617366
 C          3.7881644131       -1.9526737772       -0.0733701624
 C          2.9981804237       -1.1399887019        0.7327389692
 N          3.5817399098       -0.1224582769        1.5092541570
 S          2.9097665824        1.4064190380        1.5313161941
 O          3.9431836958        2.2395618543        2.1081365599
 O          1.6460017357        1.3929044211        2.2226664275
 C          2.6827937264        1.8307055088       -0.1835489426
 C          3.7987028380        2.1269258175       -0.9423566856
 C          3.6364743282        2.4048493464       -2.2891956081
 C          2.3692308201        2.3750666241       -2.8523999959
 C          1.2592506340        2.0814230699       -2.0764176637
 C          1.4168111581        1.8052006247       -0.7278598666
 H          0.5792851439        1.5687116139       -0.0896207351
 H          0.2738441075        2.0413226339       -2.5124682802
 H          2.2425146299        2.5824331950       -3.9032162222
 H          4.4955276664        2.6389764048       -2.8971042851
 H          4.7647388256        2.1514408378       -0.4645500635
 H          4.5860790026       -0.0622298576        1.4190032190
 H          4.8544318077       -1.7922351815       -0.1198912092
 H          3.8029119518       -3.6022316851       -1.4239844288
 H          1.3797088967       -3.9682684670       -1.3156664629
 C         -0.4678610015       -2.5360914432        0.1766466310
 H         -0.6855134304       -2.8342262600        1.2136049122
 C         -1.0438628001       -3.5773737393       -0.7601740688
 C         -1.0252052524       -5.0272514518       -0.3813076404
 C         -2.3169719733       -4.2680900183       -0.3765783888
 H         -3.0435444013       -4.4769642287       -1.1474805067
 H         -2.7551911038       -4.0064332609        0.5757890899
 H         -0.8676792464       -5.7615569239       -1.1567438177
 H         -0.5891362284       -5.2893646040        0.5708003428
 H         -0.9125886899       -3.3166425781       -1.8042221851
 O         -2.0796523576       -1.2575297589        2.1589460645
