  62
        -98.94726529
 C         -0.9592400027       -1.5382046194       -0.8750766188
 C         -2.2706431226       -1.4977393541       -0.3343193673
 C         -3.0490388429       -0.2838835444       -0.5941077784
 C         -2.5060597805        0.7093562562       -1.3197741657
 C         -3.1503549973        2.0303369396       -1.6404456481
 C         -2.9994688659        3.0650086785       -0.5163419046
 C         -3.8931133138        2.8311287747        0.7023993828
 H         -3.8745520741        3.7493413875        1.2931511821
 H         -4.9220524436        2.6721805244        0.3765370403
 C         -3.4445861700        1.6663112320        1.5964064110
 H         -3.4852084586        1.9779572713        2.6433649280
 H         -2.3996781002        1.4238779671        1.3841231218
 C         -4.2952863541        0.4016812258        1.4708441989
 H         -3.8520835871       -0.3692553700        2.1065399092
 H         -5.3048887953        0.6030491511        1.8377045391
 C         -4.3978713645       -0.1603597383        0.0474143663
 H         -4.8304387451       -1.1624164178        0.1072940326
 H         -5.0508077974        0.4675068784       -0.5587603623
 H         -1.9557617000        3.0824707483       -0.1903215900
 H         -3.2380470606        4.0455629909       -0.9357750415
 H         -4.2074471768        1.8845863035       -1.8647072015
 H         -2.6537917309        2.4131760258       -2.5347696041
 O         -1.2707934924        0.6136399502       -1.8701263320
 C         -0.4504563621       -0.4813051339       -1.6304561031
 O          0.6737769201       -0.3743044785       -2.1597177602
 O         -2.7669093373       -2.4406014397        0.3408951319
 C         -0.1034479459       -2.7258321729       -0.4658533188
 C          0.6121594053       -2.3771876049        0.8198742422
 C          0.5870873951       -3.2207465591        1.9236570218
 C          1.1802278651       -2.8364609171        3.1139335320
 C          1.7701015564       -1.5911071294        3.2390833972
 C          1.8014202626       -0.7427731669        2.1383975538
 C          1.2658175016       -1.1590887225        0.9307370270
 H          1.3173175816       -0.4985471437        0.0810323054
 N          2.3512117359        0.5460599684        2.2101637442
 S          1.5834502018        1.7852420785        1.3748775400
 O          1.9586102759        2.9862423260        2.0971034841
 O          0.1624087839        1.5542777604        1.2543862335
 C          2.3679901040        1.8370412437       -0.2200377909
 C          3.6735547223        1.4092208374       -0.3518155318
 C          4.2871100498        1.5113769289       -1.5894869099
 C          3.5927713925        2.0436876696       -2.6647421380
 C          2.2847578623        2.4736444113       -2.5137100669
 C          1.6642654343        2.3704993782       -1.2797031246
 H          0.6399523939        2.6736679036       -1.1281806334
 H          1.7392246380        2.8766704084       -3.3518780913
 H          4.0707434419        2.1179776036       -3.6289783924
 H          5.3028924675        1.1711340960       -1.7127399558
 H          4.1808471283        0.9931506532        0.5028896985
 H          2.6403333977        0.8417829961        3.1314349406
 H          2.1919137823       -1.2727179361        4.1801753727
 H          1.1552450265       -3.5007926452        3.9644180570
 H          0.0782341543       -4.1706125337        1.8539976776
 H         -0.8092215599       -3.5385137167       -0.2446462220
 C          0.8731887518       -3.2084313617       -1.5178861933
 C          1.3559756778       -4.6261506148       -1.4665618826
 C          0.4145265489       -4.1934128244       -2.5492983216
 H          0.7900676590       -4.0936978794       -3.5562379635
 H         -0.6112334097       -4.5286531820       -2.4978404017
 H          2.3829058748       -4.8281914171       -1.7287276483
 H          0.9684454976       -5.2609906467       -0.6843664383
 H          1.5732427927       -2.4466715736       -1.8341932194
