  62
        -98.93841920
 C          2.2849650083        0.7878259110        0.2046725851
 C          1.6099848869        0.1421734226       -0.8593928598
 C          1.9345443363       -1.2780022244       -1.0568390958
 C          2.7986020940       -1.8811917510       -0.2218230063
 C          3.2271368366       -3.3170969960       -0.3138056078
 C          2.3431566368       -4.2375957120        0.5370448777
 C          0.8438813437       -4.0408771800        0.3123465321
 H          0.3237031312       -4.7832194214        0.9229243972
 H          0.5443281420       -3.0596180989        0.6882529712
 C          0.3944449552       -4.1757473779       -1.1491806455
 H          1.1524845136       -4.7078222717       -1.7261454278
 H         -0.5177000048       -4.7757474367       -1.1768182261
 C          0.0714331242       -2.8424931939       -1.8263918853
 H         -0.5725577168       -2.2578926669       -1.1646539992
 H         -0.4904465880       -3.0492838712       -2.7413422999
 C          1.2806508253       -1.9807420171       -2.2132948820
 H          0.9273348482       -1.1902231830       -2.8817428876
 H          2.0083303543       -2.5894331137       -2.7550914175
 H          2.5574588175       -4.0487452189        1.5917457953
 H          2.6132653980       -5.2724504839        0.3157449762
 H          3.1940641837       -3.6295962449       -1.3560126246
 H          4.2562160432       -3.3876777225        0.0442601898
 O          3.3816978050       -1.2429188989        0.8268506880
 C          3.1286130534        0.0954885794        1.0709748136
 O          3.7113798424        0.5552664640        2.0775951360
 O          0.7924004740        0.7187687366       -1.6206683155
 C          2.0690415799        2.2744994234        0.4837204618
 C          0.5814527571        2.5289958421        0.4745632460
 C         -0.1515752468        3.3699716388       -0.3525128797
 C         -1.5357892594        3.4030723835       -0.2863360238
 C         -2.2303887719        2.5796357486        0.5788042882
 C         -1.5093401286        1.7469465755        1.4229578518
 C         -0.1284619144        1.7544258740        1.3912226614
 H          0.4175036511        1.0875525161        2.0490641800
 N         -2.2170047864        0.8104799176        2.2359474915
 S         -2.2033030378       -0.7040821467        1.4785910231
 O         -2.9342564399       -1.5901874448        2.3607998592
 O         -0.8545436253       -1.1248450942        1.1654202650
 C         -3.1392439461       -0.3957278354        0.0011118274
 C         -2.4940108981        0.0225932369       -1.1460781550
 C         -3.2562252653        0.2988843638       -2.2712322599
 C         -4.6345705731        0.1578302418       -2.2296219563
 C         -5.2653893668       -0.2605245705       -1.0672085815
 C         -4.5122318339       -0.5380421204        0.0616334836
 H         -4.9531110434       -0.8689600604        0.9876282992
 H         -6.3376182593       -0.3688706471       -1.0369394940
 H         -5.2200969990        0.3762898468       -3.1088373849
 H         -2.7611806244        0.6279123641       -3.1706527971
 H         -1.4199074911        0.1338765474       -1.1540065546
 H         -1.7967668310        0.6954811001        3.1496645718
 H         -3.3076423268        2.5630652574        0.6044574138
 H         -2.0794036301        4.0609219363       -0.9466753371
 H          0.3341360185        3.9874447587       -1.0855715895
 H          2.4081153584        2.4231439002        1.5231953762
 C          3.0379529886        3.0667777769       -0.3806783720
 C          2.8107990660        3.4409912039       -1.8117203624
 C          2.8943814201        4.5096158835       -0.7606937484
 H          3.7854666252        5.1196261771       -0.7358344841
 H          2.0034133713        5.0383361234       -0.4653868667
 H          3.6412532124        3.3329260452       -2.4946591991
 H          1.8611148912        3.1879200169       -2.2535895821
 H          4.0496032057        2.7470271119       -0.1370889292
