  62
        -98.94275970
 C         -0.9973960389       -1.2574602445       -0.4612251868
 C         -1.9966233358       -1.4984251979        0.5173928209
 C         -2.9388613486       -0.4047290346        0.7717936418
 C         -2.8005106666        0.7570050364        0.1082204663
 C         -3.6622202913        1.9791332354        0.2736934226
 C         -4.9613073975        1.9437906262       -0.5430718972
 C         -6.0318430730        0.9829828413       -0.0242684951
 H         -6.9581882930        1.2194991292       -0.5516562542
 H         -6.2045610720        1.1702937628        1.0359478509
 C         -5.7076693940       -0.5018523104       -0.2401845121
 H         -4.9163979694       -0.5975376698       -0.9873766066
 H         -6.5870560537       -1.0128050192       -0.6389752851
 C         -5.2847064398       -1.2487474640        1.0248577371
 H         -5.0429487721       -2.2786867862        0.7500959717
 H         -6.1179911394       -1.2759973830        1.7306397022
 C         -4.0630879895       -0.6484959539        1.7328835698
 H         -3.7124774020       -1.3656326100        2.4790582777
 H         -4.3392151468        0.2764876038        2.2384862149
 H         -4.7169989754        1.6918236974       -1.5775439532
 H         -5.3781014223        2.9535718482       -0.5364888059
 H         -3.0648666064        2.8253697767       -0.0692285821
 H         -3.8983513722        2.1209300048        1.3284622769
 O         -1.8190022589        0.9600585796       -0.8069285225
 C         -0.9017790173       -0.0357533614       -1.1303158557
 O         -0.0905409818        0.3086377310       -2.0077362787
 O         -2.0955405967       -2.5858731416        1.1472125347
 C         -0.0130069585       -2.3873930129       -0.7044526515
 C          1.1534845457       -2.2798077536        0.2445709639
 C          1.5957848222       -3.3836889963        0.9642916653
 C          2.6637682624       -3.2709386883        1.8366731569
 C          3.3146632354       -2.0613282681        1.9986510331
 C          2.8764051365       -0.9499301191        1.2870602959
 C          1.7970472570       -1.0637929540        0.4236351656
 H          1.4628319942       -0.1984168699       -0.1268392784
 N          3.4889822427        0.2995248966        1.4489393843
 S          3.6238161289        1.3374958478        0.1421168872
 O          3.8699778930        0.6125798287       -1.0819809670
 O          4.6648897581        2.2656618392        0.5372183889
 C          2.0843326744        2.2259734694        0.0813362658
 C          1.4370257667        2.5262377392        1.2636282293
 C          0.2820475799        3.2891671296        1.2171566073
 C         -0.1957160893        3.7454753313       -0.0018804299
 C          0.4633165818        3.4318317490       -1.1789414696
 C          1.6154729321        2.6631035424       -1.1402955697
 H          2.1438054954        2.3787236360       -2.0359751409
 H          0.0809784921        3.7701872664       -2.1284454356
 H         -1.0889186056        4.3499225106       -0.0348303468
 H         -0.2417955555        3.5251836166        2.1297699215
 H          1.8363899419        2.1549274391        2.1931375958
 H          4.3137428837        0.3085118466        2.0309251476
 H          4.1515164714       -1.9723488573        2.6744242415
 H          2.9969091827       -4.1340639612        2.3926734308
 H          1.0873660684       -4.3293178228        0.8468523484
 H         -0.5628960587       -3.3060306461       -0.4423188245
 C          0.4248576918       -2.5262177822       -2.1545191811
 C          1.7425206492       -2.0480656480       -2.6776612732
 C          1.4873855292       -3.5166926291       -2.5310356746
 H          1.3503336106       -4.1096567054       -3.4227627466
 H          1.9945515234       -4.0325563030       -1.7295744103
 H          1.7555616077       -1.6182412155       -3.6680303633
 H          2.4300408907       -1.5634460585       -2.0011345577
 H         -0.4162129572       -2.4345949905       -2.8352092026
