  62
        -98.93808110
 C          2.2711382932       -0.7281084040        0.3174061258
 C          3.6114730715       -1.1297320362        0.0755787901
 C          4.4578934146       -0.1723042453       -0.6435819084
 C          3.9265885016        0.9790411695       -1.0914684442
 C          4.6507011473        2.0470888736       -1.8652887547
 C          5.4338551146        3.0318522108       -0.9859379397
 C          6.7061415748        2.4687997473       -0.3510180720
 H          7.3237796094        2.0100649397       -1.1237188332
 H          7.2644683699        3.3160789091        0.0519888877
 C          6.4575990981        1.4597282894        0.7788874647
 H          7.1017584667        1.6976950436        1.6283230738
 H          5.4254304991        1.5492146288        1.1257460403
 C          6.7280284320        0.0037795332        0.3990128257
 H          6.4853272764       -0.6262604704        1.2587036828
 H          7.7894037166       -0.1258746356        0.1765475780
 C          5.9128000596       -0.4965384051       -0.8007085538
 H          6.3006767123       -0.0679169241       -1.7245169477
 H          6.0073279448       -1.5839977941       -0.8516758574
 H          4.7696981623        3.4047399116       -0.2027356821
 H          5.7124967029        3.8795185515       -1.6162065942
 H          3.8877411020        2.6046792900       -2.4129596039
 H          5.3257044712        1.5837069261       -2.5855070560
 O          2.6209628800        1.3003394994       -0.8999818436
 C          1.7644171197        0.4753646948       -0.1772835869
 O          0.6141881811        0.9382460737       -0.0618828946
 O          4.0783371813       -2.2402480062        0.4432257054
 C          1.3853313924       -1.7027481367        1.0749739226
 C          0.1104572983       -1.9350629927        0.3067227227
 C          0.1337324278       -2.7625979782       -0.8120386451
 C         -1.0055056061       -2.9553355291       -1.5702331233
 C         -2.1894275169       -2.3233022778       -1.2322593161
 C         -2.2187861789       -1.4860842877       -0.1256677012
 C         -1.0763409808       -1.3059307817        0.6441939665
 H         -1.1025733534       -0.6375746552        1.4906543158
 N         -3.4156027338       -0.8375867700        0.2342797523
 S         -4.3849628551       -0.2277011017       -1.0065051184
 O         -5.1597862215       -1.3160893125       -1.5512894503
 O         -3.5932794171        0.5170017044       -1.9598309535
 C         -5.4506225096        0.8657878341       -0.0877378320
 C         -5.0463928208        2.1709549405        0.1212048056
 C         -5.8619374770        3.0148132956        0.8586015059
 C         -7.0591752278        2.5408393319        1.3742186714
 C         -7.4507495235        1.2284151615        1.1563766645
 C         -6.6405178326        0.3794744489        0.4190736329
 H         -6.9054311439       -0.6450607119        0.2167257382
 H         -8.3830257552        0.8649122927        1.5573952038
 H         -7.6912005939        3.2005670930        1.9474416489
 H         -5.5604517015        4.0361482428        1.0275800469
 H         -4.1111792811        2.4992645143       -0.3049822606
 H         -3.2525544934       -0.1268042798        0.9349728503
 H         -3.0817631370       -2.4518588603       -1.8235471661
 H         -0.9736082640       -3.5987816564       -2.4369489457
 H          1.0622131331       -3.2435710236       -1.0884358793
 H          1.9588094631       -2.6439326537        1.0722356903
 C          1.1490487572       -1.3473865518        2.5352459070
 C          2.2555917299       -0.7628990182        3.3602827052
 C          1.0476906486        0.0611658101        3.0355097397
 H          0.3439075435        0.2686683593        3.8286858254
 H          1.1447824942        0.8619560882        2.3195881348
 H          2.3865196461       -1.1126880770        4.3730767266
 H          3.1814939118       -0.5322659988        2.8534735608
 H          0.5163168567       -2.0810557035        3.0257854897
