  62
        -98.94850102
 C          2.3578218935        0.6154396442        0.1701110381
 C          1.5411283022        0.0115738003       -0.8154905394
 C          1.6768421770       -1.4445932748       -0.9647615220
 C          2.5291576826       -2.1139784758       -0.1692540419
 C          2.7692528285       -3.5949535739       -0.2148621744
 C          1.8558068838       -4.3520253966        0.7575188717
 C          0.3782591231       -3.9755696581        0.6446901043
 H         -0.1733496520       -4.6164443311        1.3370123160
 H          0.2347186919       -2.9478173837        0.9877414206
 C         -0.2110539234       -4.1210301942       -0.7652464944
 H          0.4207604741       -4.7743073004       -1.3690411543
 H         -1.1901119790       -4.5980700138       -0.6835566195
 C         -0.4235100556       -2.7917278782       -1.4920554522
 H         -0.9318538636       -2.0984599388       -0.8173448871
 H         -1.0841146401       -2.9682691449       -2.3454297920
 C          0.8444265561       -2.1107225314       -2.0240927975
 H          1.4414806307       -2.8318189315       -2.5871005129
 H          0.5334846303       -1.3140924976       -2.7062354600
 H          1.9744759682       -5.4224067076        0.5760806477
 H          2.1839823450       -4.1420135092        1.7783000109
 H          2.6068153847       -3.9497061470       -1.2310294499
 H          3.8089838173       -3.7794447442        0.0626748165
 O          3.2684090107       -1.5079887507        0.7957442496
 C          3.1786101735       -0.1422676298        1.0076924058
 O          3.8748757917        0.2756800572        1.9559210410
 H          0.3242909535        1.0413077833        1.8385903059
 C         -0.0298424945        1.8701680623        1.2420069971
 C          0.8627337918        2.5681263989        0.4370440083
 C          0.3819285698        3.6306365856       -0.3170080438
 C         -0.9607789479        3.9667422234       -0.2784397982
 C         -1.8534774399        3.2365293790        0.4840466000
 C         -1.3809349981        2.1705063147        1.2411747190
 N         -2.2502724176        1.3640365588        2.0069952961
 S         -2.3924338861       -0.2413024444        1.5410227058
 O         -3.3158609530       -0.8287374859        2.4887790215
 O         -1.0886456998       -0.8461959870        1.4639956524
 C         -3.1713347906       -0.1754991950       -0.0637886891
 C         -2.4403167129        0.2338757369       -1.1614191139
 C         -3.0831843634        0.3316600956       -2.3867795998
 C         -4.4304402787        0.0249486489       -2.4943987363
 C         -5.1492892914       -0.3829592698       -1.3806096759
 C         -4.5165783888       -0.4799260481       -0.1523589510
 H         -5.0316412792       -0.7940422280        0.7411715195
 H         -6.1969018354       -0.6234596554       -1.4646176867
 H         -4.9217297738        0.1035118861       -3.4514562441
 H         -2.5170483679        0.6492790538       -3.2476540695
 H         -1.3892510426        0.4611161191       -1.0660207941
 H         -3.1766811236        1.7553738598        2.1132126314
 H         -2.9057249866        3.4789507407        0.4895818707
 H         -1.3200497311        4.7949903680       -0.8699363803
 H          1.0520619476        4.1830759633       -0.9547807933
 C          2.3010026516        2.1102187409        0.4414636729
 H          2.6867977419        2.2270403405        1.4684427163
 C          3.2035681837        2.9397993593       -0.4605676713
 C          4.4195851127        2.3413194090       -1.1007849419
 C          3.2463437085        2.7355187716       -1.9440698347
 H          3.3431616728        3.6035928749       -2.5794930971
 H          2.6238494388        1.9571595519       -2.3554832301
 H          5.3170223952        2.9397091820       -1.1504732395
 H          4.6063851020        1.2895809119       -0.9375651573
 H          3.3079858111        3.9595220575       -0.1029685278
 O          0.7461336782        0.6502134287       -1.5536583893
