  62
        -98.93813129
 C         -1.0236431396       -1.2110052879       -0.7260234779
 C         -2.1121308930       -1.4630845329        0.1432375962
 C         -3.0005609228       -0.3326979935        0.4583958702
 C         -2.7260837399        0.8802601608       -0.0553683604
 C         -3.3894699819        2.2253218923        0.1581181596
 C         -4.7843236644        2.3204069557        0.7710246359
 C         -5.9040253778        1.7367004455       -0.0894600537
 H         -6.0284657626        2.3672644090       -0.9732936161
 H         -6.8320166334        1.7809928578        0.4847670416
 C         -5.6851169161        0.3045586762       -0.5705480174
 H         -4.8203855024        0.2695635101       -1.2362052154
 H         -6.5584661966        0.0131921390       -1.1602094902
 C         -5.5022257040       -0.7354879325        0.5333438502
 H         -5.5289189190       -1.7217973753        0.0626082288
 H         -6.3364313083       -0.6776362847        1.2351399511
 C         -4.1864075644       -0.6396867694        1.3266849231
 H         -3.9898004912       -1.6170613083        1.7773374591
 H         -4.2624105843        0.0808148119        2.1384198831
 H         -4.9919265385        3.3855015029        0.9067424915
 H         -4.7906936678        1.8713150622        1.7599769868
 H         -3.3941402096        2.7155552181       -0.8207276941
 H         -2.6962240927        2.7948813297        0.7884761007
 O         -1.6648119532        1.0807867725       -0.8856609752
 C         -0.7877096619        0.0629925791       -1.2412067350
 O          0.1156007597        0.4357127001       -2.0099166486
 O         -2.3333679341       -2.5998860285        0.6449432113
 C         -0.0741257626       -2.3686011999       -0.9824460954
 C          0.9727181982       -2.3959507484        0.1030000953
 C          1.2940412199       -3.5673521240        0.7776815672
 C          2.2235720089       -3.5525151606        1.8033724168
 C          2.8300954777       -2.3706362161        2.1893510140
 C          2.5148811425       -1.1936585197        1.5189686080
 C          1.6124894714       -1.2198719845        0.4678506219
 H          1.3783246174       -0.3040022751       -0.0501257725
 N          3.1035016445        0.0281452342        1.8716093400
 S          2.2414955527        1.4527962160        1.6863512985
 O          2.9159788507        2.3867047549        2.5671590176
 O          0.8307338032        1.2679452277        1.9434600127
 C          2.5318195870        1.9563989537        0.0057437563
 C          3.7288456595        1.6330656777       -0.6013612337
 C          3.9610883019        2.0728180846       -1.8939033557
 C          3.0033451032        2.8307805290       -2.5497615415
 C          1.8105421519        3.1520522567       -1.9235463673
 C          1.5697360756        2.7109239630       -0.6328244251
 H          0.6434372677        2.9194518953       -0.1201816292
 H          1.0593287720        3.7306310435       -2.4364776838
 H          3.1839107784        3.1684237687       -3.5582059967
 H          4.8855347051        1.8190646839       -2.3875705474
 H          4.4487464150        1.0374665311       -0.0647931527
 H          3.6560339285        0.0206119300        2.7163381260
 H          3.5347060164       -2.3542031732        3.0066235792
 H          2.4646147877       -4.4679817310        2.3219677756
 H          0.7946463516       -4.4869079632        0.5102611600
 H         -0.6883492111       -3.2765819948       -0.8707025017
 C          0.5191748381       -2.3864476955       -2.3825789470
 C          1.9324825210       -1.9972128894       -2.6826371854
 C          1.5237747156       -3.4359455300       -2.7578439462
 H          1.4444667706       -3.9033449792       -3.7275287230
 H          1.8701585232       -4.0940423237       -1.9753582209
 H          2.1154319368       -1.4552893802       -3.5973507801
 H          2.5585340891       -1.6830496897       -1.8624182526
 H         -0.2187233164       -2.1259317949       -3.1342933583
