  62
        -98.93919810
 C          2.6315205781       -1.2559182958       -0.3972043400
 C          2.9898566763       -0.1351390293       -1.1895547455
 C          4.1604531385        0.6326535422       -0.7491709759
 C          4.8210108807        0.2411774592        0.3556562955
 C          6.0014461588        0.9533141534        0.9486391424
 C          5.5595760686        1.9912849216        1.9895438700
 C          4.4455362504        2.9181286760        1.5027241452
 H          3.5352368734        2.3337713736        1.3481474163
 H          4.2374030770        3.6275078164        2.3066525729
 C          4.7764624974        3.6873041212        0.2160733184
 H          4.4734597782        4.7287803314        0.3429166834
 H          5.8538916662        3.6814836292        0.0470915581
 C          4.0654815106        3.1669344661       -1.0347389244
 H          4.1938572832        3.9054613108       -1.8308104459
 H          2.9930630076        3.0822987960       -0.8388097215
 C          4.5649696482        1.8209759306       -1.5751497416
 H          4.1119345275        1.6697977310       -2.5594598045
 H          5.6496183408        1.8539790888       -1.6976061661
 H          6.4295850705        2.5849366579        2.2759645548
 H          5.2013630358        1.4624808795        2.8757090087
 H          6.5634884463        1.4377061865        0.1525112982
 H          6.6400296838        0.2138654909        1.4346791169
 O          4.4521713270       -0.8362452597        1.0900212741
 C          3.3427824107       -1.6045072683        0.7520311358
 O          3.1263541834       -2.5396676333        1.5424051135
 O          2.3599396362        0.1986387726       -2.2306224857
 C          1.4218999653       -2.0493374974       -0.8593583889
 C          0.1690148060       -1.4972955491       -0.2288863120
 C          0.0408246711       -1.3955563980        1.1534471022
 C         -1.1104703387       -0.8709973460        1.7110989328
 C         -2.1501907949       -0.4317719545        0.9089802865
 C         -2.0223886810       -0.5055754869       -0.4710281720
 C         -0.8689222217       -1.0446071872       -1.0289217237
 H         -0.7676824338       -1.0906789484       -2.1048825019
 N         -3.0689360856       -0.0644824040       -1.2941243524
 S         -3.8670091300        1.3644489824       -0.9259976284
 O         -4.4319767031        1.8075987189       -2.1815558188
 O         -3.0030768056        2.2987809681       -0.2428885661
 C         -5.1868452178        0.8439442901        0.1508257037
 C         -5.3724560126        1.4727781124        1.3663187928
 C         -6.4124387121        1.0581270463        2.1839077101
 C         -7.2447339100        0.0283568126        1.7730467157
 C         -7.0473386461       -0.5904035393        0.5475109191
 C         -6.0104850713       -0.1798797184       -0.2748384170
 H         -5.8262235593       -0.6328354861       -1.2345671980
 H         -7.6966852922       -1.3909083952        0.2315365619
 H         -8.0519503950       -0.2937351379        2.4117468656
 H         -6.5678607495        1.5389349462        3.1363769612
 H         -4.6970157893        2.2652316616        1.6476905011
 H         -2.8703439683       -0.1262751895       -2.2821260176
 H         -3.0449159757       -0.0164525275        1.3426291659
 H         -1.2005084270       -0.8016500305        2.7846562957
 H          0.8547385056       -1.7286929990        1.7799778837
 H          1.3595083846       -1.8486499542       -1.9410420536
 C          1.5762514516       -3.5539307434       -0.6895999593
 C          0.7524604108       -4.3781549713        0.2491342690
 C          0.5181425569       -4.4725794110       -1.2266041933
 H          0.8228066786       -5.3672141249       -1.7480175864
 H         -0.3790069682       -4.0157127184       -1.6172675074
 H          1.2441872732       -5.1960125705        0.7531014795
 H          0.0087166380       -3.8815472998        0.8514020330
 H          2.6057901667       -3.8698902566       -0.8224448010
