  62
        -98.93834922
 C         -1.8210364615       -0.4089659295       -0.0022009985
 C         -2.9189029491       -0.4730654968        0.8961386991
 C         -4.0662059428        0.4043671738        0.6166464625
 C         -4.0226027134        1.2200472786       -0.4501202149
 C         -5.0478504821        2.2251310379       -0.9120612179
 C         -6.5235091056        1.8081721943       -0.8575701286
 C         -6.7870481889        0.3202679910       -1.1316238611
 H         -7.5550981139        0.2319761891       -1.9022687727
 H         -5.8832876872       -0.1549749256       -1.5168024975
 C         -7.2738206227       -0.4377083697        0.1057866510
 H         -8.0107804289        0.1779549652        0.6260956885
 H         -7.7807745817       -1.3498471105       -0.2181573953
 C         -6.1827677449       -0.8525283256        1.0921407713
 H         -5.5685257006       -1.6435753721        0.6536812738
 H         -6.6697741770       -1.2771116525        1.9732812482
 C         -5.2380119184        0.2721539767        1.5463728992
 H         -5.7706332741        1.2133998993        1.6587269976
 H         -4.8218821339       -0.0101096700        2.5172596345
 H         -6.9406821894        2.0698957842        0.1137911552
 H         -7.0491637028        2.4139176750       -1.5977851478
 H         -4.9127826631        3.1406173632       -0.3283598237
 H         -4.7716628684        2.4589490816       -1.9432446130
 O         -2.9471089745        1.2577217297       -1.2837092711
 C         -1.8309522007        0.4583249527       -1.0929748647
 O         -0.9499878472        0.6321991155       -1.9607286347
 H          0.8092964691        0.7356310908       -0.6626477861
 C          1.1458704982        0.4256809474        0.3154651287
 C          0.4888813741       -0.6100345064        0.9646235361
 C          0.9322688443       -0.9898549945        2.2256981681
 C          2.0060002174       -0.3489815054        2.8200521530
 C          2.6587761390        0.6822296469        2.1691768762
 C          2.2165656997        1.0735113323        0.9121978714
 N          2.8884321926        2.1117453303        0.2311319100
 S          4.5108838178        1.8101956699       -0.0716352436
 O          5.2707780573        2.0645021196        1.1266564814
 O          4.8544614741        2.6155654646       -1.2220292998
 C          4.5656687394        0.0725600970       -0.4704974951
 C          5.0720482515       -0.8281813833        0.4438972334
 C          5.0298592372       -2.1803386900        0.1442438343
 C          4.4793378288       -2.6054831992       -1.0545116987
 C          3.9748624903       -1.6875407211       -1.9629242282
 C          4.0135215163       -0.3347916607       -1.6686396001
 H          3.6315548666        0.4063458421       -2.3529271630
 H          3.5463829845       -2.0183873291       -2.8956626154
 H          4.4436688992       -3.6589862520       -1.2835471150
 H          5.4209417790       -2.8973553237        0.8477370663
 H          5.4894482005       -0.4543640393        1.3642609894
 H          2.4234213374        2.3742741462       -0.6269483156
 H          3.5025220807        1.1889087854        2.6092531538
 H          2.3389946778       -0.6561734420        3.7995568053
 H          0.4225948331       -1.7880989239        2.7449165134
 C         -0.6518422269       -1.3339657788        0.2906181476
 H         -1.0453335673       -2.0713868991        1.0027986575
 C         -0.1451925885       -2.0713227394       -0.9349918417
 C          0.6408080458       -3.3328637791       -0.7488822222
 C         -0.7509004160       -3.3911939704       -1.3020182529
 H         -0.8851721364       -3.6226121816       -2.3480445043
 H         -1.5375134708       -3.7737474974       -0.6678779232
 H          0.7992235826       -3.6777116944        0.2613273161
 H          1.4679122321       -3.5244235271       -1.4139838621
 H          0.1407733701       -1.4125388377       -1.7443503704
 O         -2.9371354791       -1.2360623540        1.8978605402
