  62
        -98.93701843
 C          1.7579861004       -0.8828755780       -0.2194487935
 C          2.2833851548        0.4101113936        0.0134455226
 C          3.7288051254        0.5685459543       -0.2174495517
 C          4.4478561200       -0.4891772158       -0.6352550641
 C          5.9368459965       -0.5074429568       -0.8347187550
 C          6.6495679565       -0.6079215311        0.5290778245
 C          7.4818438888        0.6204169315        0.8974756747
 H          7.7534092486        0.5272949749        1.9511594803
 H          8.4066683066        0.6100999750        0.3168203123
 C          6.8048155016        1.9763843085        0.6755307202
 H          7.3940895963        2.7186654782        1.2181682783
 H          6.8606965829        2.2467303920       -0.3799768191
 C          5.3434991466        2.0796458852        1.1312853426
 H          5.1951151651        3.0658475396        1.5761378361
 H          5.1298382225        1.3462709077        1.9092248457
 C          4.3077789234        1.9391322564       -0.0000610476
 H          3.4455601946        2.5705687235        0.2351710510
 H          4.7376091655        2.3071048162       -0.9359249619
 H          5.8938524273       -0.7805956550        1.2982083490
 H          7.3062388102       -1.4791568572        0.5334101738
 H          6.1714859439       -1.3756587788       -1.4507779746
 H          6.2478278846        0.3904002351       -1.3641044353
 O          3.9022449710       -1.7133204259       -0.8576599840
 C          2.5509261274       -1.9424780072       -0.6581509722
 O          2.1822736775       -3.1076932507       -0.9077948989
 H         -1.8159324335        0.5114704737        0.7500508793
 C         -1.5771497658        0.5574859374       -0.2990692214
 C         -0.5480619357       -0.2059163885       -0.8263102620
 C         -0.2679762242       -0.1011431251       -2.1873045653
 C         -0.9802282277        0.7656014500       -2.9915484913
 C         -1.9983265788        1.5377999898       -2.4594364169
 C         -2.2933006694        1.4333968559       -1.1061053257
 N         -3.3152926557        2.2083443187       -0.5431814984
 S         -4.2495447857        1.6288437154        0.7071404504
 O         -5.4658219170        2.4111070752        0.6361003965
 O         -3.5354504097        1.6981973494        1.9570171567
 C         -4.6027121591       -0.0739685289        0.3032842661
 C         -5.0207453109       -0.3882065304       -0.9748915972
 C         -5.3038046122       -1.7091980828       -1.2813662262
 C         -5.1716015826       -2.6890656213       -0.3092591202
 C         -4.7605928733       -2.3566012710        0.9717810930
 C         -4.4721531614       -1.0370850618        1.2819683860
 H         -4.1429443725       -0.7355691081        2.2630027491
 H         -4.6601809464       -3.1179575194        1.7288287393
 H         -5.3908508819       -3.7171194035       -0.5510907421
 H         -5.6251345722       -1.9708155750       -2.2766246124
 H         -5.1223691365        0.3920386688       -1.7111440761
 H         -3.8429955303        2.7717475111       -1.1923855908
 H         -2.5500906194        2.2245534637       -3.0830172314
 H         -0.7436229220        0.8419007247       -4.0421084313
 H          0.5301247945       -0.7026729648       -2.6012917755
 C          0.2803714472       -1.1518811682        0.0070857738
 H          0.0993303093       -2.1747167656       -0.3543683507
 C         -0.0302171150       -1.0979234248        1.4878758380
 C         -1.1445011938       -1.9207691006        2.0575776987
 C          0.2799532063       -2.2964487681        2.3319202744
 H          0.6748201205       -2.1408735340        3.3247938945
 H          0.6891851567       -3.1611050205        1.8296441510
 H         -1.7264075844       -1.5025433374        2.8649356048
 H         -1.7105920659       -2.5361244190        1.3749778769
 H          0.1562285847       -0.1207763757        1.9196011253
 O          1.5833999352        1.3855168039        0.3927879944
