  62
        -98.93553448
 C         -1.9492997931       -1.2151480541        0.1233014224
 C         -2.7375197010       -0.6237110484        1.1404982920
 C         -3.9320346459        0.1244692473        0.7125424639
 C         -4.1890411200        0.2575575003       -0.6018972939
 C         -5.3410857783        0.9175537033       -1.3302498996
 C         -6.2790792344        1.8766781659       -0.6019155781
 C         -5.6319104085        3.1855688901       -0.1508178636
 H         -6.3640621075        3.7439620562        0.4365898464
 H         -5.3938722888        3.7795595542       -1.0369368503
 C         -4.3488532429        3.0401990071        0.6637573445
 H         -3.9981383811        4.0447188146        0.9165724970
 H         -3.5746207271        2.5767268622        0.0481714042
 C         -4.4866874173        2.2544104484        1.9665780482
 H         -5.2858162304        2.6857158985        2.5724466294
 H         -3.5502160068        2.3680920585        2.5195609009
 C         -4.7495133015        0.7464752644        1.8079087669
 H         -5.8073778236        0.5426775967        1.6601028216
 H         -4.4464904393        0.2529735865        2.7359534006
 H         -6.7519141883        1.3767025534        0.2382987077
 H         -7.0747118158        2.1290172127       -1.3081883196
 H         -5.9387465795        0.0978184028       -1.7444359515
 H         -4.8940457266        1.4340245450       -2.1857320053
 O         -3.3709511862       -0.2850179904       -1.5492036031
 C         -2.2355918752       -1.0165797695       -1.2271877383
 O         -1.5959252367       -1.4105295963       -2.2185772661
 O         -2.4556010422       -0.7167811271        2.3656096187
 C         -0.7166421286       -1.9934220971        0.5477776568
 C          0.4840054758       -1.5181927819       -0.2310947157
 C          1.2494190800       -2.3370210574       -1.0494101171
 C          2.3261193750       -1.8183923379       -1.7484727625
 C          2.6667263539       -0.4831592198       -1.6427018849
 C          1.9148974553        0.3426974730       -0.8156823413
 C          0.8416079586       -0.1799713816       -0.1116800405
 H          0.2510530196        0.4666788314        0.5262935306
 N          2.2559209994        1.6995171413       -0.6926565189
 S          3.8707557590        2.1074324187       -0.5442554795
 O          3.8760766786        3.3667170798        0.1670639315
 O          4.4936871311        2.1178452491       -1.8443790111
 C          4.5903039196        0.8199301232        0.4597035831
 C          5.5946749052        0.0243888806       -0.0524097357
 C          6.1163480888       -0.9878380733        0.7373854221
 C          5.6240846570       -1.1879727165        2.0174789781
 C          4.6168471066       -0.3776976634        2.5193405498
 C          4.0930757277        0.6367371355        1.7349134037
 H          3.3136899395        1.2877346664        2.0977981073
 H          4.2354119996       -0.5340632690        3.5156641778
 H          6.0274096805       -1.9788817619        2.6298437008
 H          6.9010050219       -1.6178439349        0.3507231048
 H          5.9465313325        0.2134841045       -1.0534644632
 H          1.6815622318        2.2142893333       -0.0425096482
 H          3.4874105537       -0.0619146944       -2.2002169136
 H          2.9037003734       -2.4628649859       -2.3933191756
 H          0.9862095368       -3.3752690041       -1.1641318368
 H         -0.5683529573       -1.7064899462        1.6025141164
 C         -0.8900226815       -3.5043321617        0.5362374440
 C         -2.2381292511       -4.1265425317        0.7406644941
 C         -1.5577265799       -4.2333860344       -0.5895267287
 H         -1.1600068059       -5.1937808025       -0.8837713581
 H         -1.9348182151       -3.6474409759       -1.4125879286
 H         -2.3083323726       -5.0098322463        1.3575908137
 H         -3.0873314535       -3.4641973643        0.8281968385
 H         -0.0544126995       -4.0084547142        1.0119491855
