  62
        -98.93020487
 C         -2.4264120299       -1.2804319415        0.1587899909
 C         -2.3601070207        0.0119005322       -0.4151152163
 C         -3.6498810434        0.6257280145       -0.7867098493
 C         -4.7945060794       -0.0403179660       -0.5621130871
 C         -6.2044995212        0.3723738193       -0.9031154241
 C         -6.6081175195        1.8237636528       -0.6065882042
 C         -5.9185251621        2.4549731505        0.6116688792
 H         -6.6778153699        2.9003078783        1.2571590850
 H         -5.4067952209        1.6861326876        1.1930918677
 C         -4.9233536848        3.5542863569        0.2319199196
 H         -5.3690501144        4.1751304032       -0.5483256475
 H         -4.7564331349        4.1930714554        1.1025025664
 C         -3.5533731675        3.0677785894       -0.2398741259
 H         -2.9970487046        2.6454023266        0.6015966317
 H         -2.9895148077        3.9359295816       -0.5898236986
 C         -3.5736870716        2.0124329433       -1.3578014532
 H         -4.3779833418        2.2014692463       -2.0648719865
 H         -2.6200015899        2.0691916382       -1.8901857925
 H         -7.6886677741        1.8252537449       -0.4542306893
 H         -6.4141406555        2.4417614584       -1.4821759269
 H         -6.8433382733       -0.3087219062       -0.3359816788
 H         -6.3721952520        0.1637619004       -1.9637057010
 O         -4.8129662552       -1.2735455963        0.0190122911
 C         -3.6475057116       -1.9119786895        0.4039599524
 O         -3.8276498437       -3.0168889398        0.9533931282
 O         -1.2870602173        0.6361769188       -0.6209598318
 C         -1.1786858876       -2.0317500139        0.5891453691
 C         -0.2186422012       -1.0991234423        1.2869565205
 C         -0.6501876313       -0.4369058612        2.4336219073
 C          0.1855365482        0.4371563134        3.1000629917
 C          1.4720473308        0.6619611263        2.6435080757
 C          1.9192811814       -0.0067688141        1.5098847321
 C          1.0758075741       -0.8832233826        0.8416509338
 H          1.4361440314       -1.3652248381       -0.0505750056
 N          3.2439108704        0.1684731334        1.0723210205
 S          3.6800042834        0.0084641496       -0.5470202393
 O          2.9705253097        0.9582024526       -1.3742396795
 O          3.5816515198       -1.3782164674       -0.9272399112
 C          5.3992597631        0.4704887743       -0.4258192582
 C          5.7877127748        1.7530665369       -0.7629835122
 C          7.1229255192        2.1044282944       -0.6391618572
 C          8.0418700073        1.1731859967       -0.1796691726
 C          7.6375260838       -0.1110555022        0.1538713574
 C          6.3045312299       -0.4687852552        0.0306637391
 H          5.9456820076       -1.4564025608        0.2687337391
 H          8.3553092934       -0.8333221537        0.5079435357
 H          9.0801521356        1.4490652362       -0.0840179281
 H          7.4406085022        3.1007079001       -0.9016297903
 H          5.0397841552        2.4407391150       -1.1242458184
 H          3.6771375722        0.9898194038        1.4721441334
 H          2.1238504702        1.3502748800        3.1599555617
 H         -0.1678271003        0.9536020536        3.9802073984
 H         -1.6600078981       -0.6061836961        2.7843517581
 H         -1.5311734898       -2.7669531258        1.3325988115
 C         -0.5244130769       -2.8277535560       -0.5305218908
 C         -1.3191170783       -3.3499810334       -1.6887714770
 C         -0.3191613036       -2.2547714133       -1.8992800566
 H          0.6026760161       -2.4823718430       -2.4157357274
 H         -0.6765477007       -1.2527420661       -2.0788325372
 H         -1.0897573541       -4.3365753647       -2.0623354689
 H         -2.3692572806       -3.0995420506       -1.7312000486
 H          0.2607989924       -3.4795659512       -0.1584046210
