  62
        -98.94132374
 C         -2.3514515777       -1.0902929424       -0.5955544167
 C         -3.5594031421       -0.7802630181        0.0827730423
 C         -4.1853020523        0.5007446102       -0.2575624725
 C         -3.6086615893        1.3006512763       -1.1724988323
 C         -4.1299096976        2.6322006526       -1.6402969267
 C         -3.7447784423        3.8060286870       -0.7294346199
 C         -4.4842280999        3.8607112573        0.6080244026
 H         -4.2838862110        4.8412205385        1.0444397150
 H         -5.5582893939        3.7956829940        0.4313167640
 C         -4.0592481694        2.7795048232        1.6116991965
 H         -3.0983116745        2.3560579792        1.3079820568
 H         -3.9082550420        3.2334213343        2.5938590614
 C         -5.0688646086        1.6449061638        1.7877273326
 H         -4.6476588755        0.9193214040        2.4882679355
 H         -5.9897069051        2.0390210496        2.2231953378
 C         -5.4196835968        0.9035323889        0.4911512411
 H         -6.0594673704        1.5238880611       -0.1359307166
 H         -5.9617280871       -0.0081527339        0.7537140163
 H         -2.6675640082        3.7698662274       -0.5485969793
 H         -3.9590714673        4.7270597208       -1.2764886691
 H         -5.2148495359        2.5870571461       -1.7386349930
 H         -3.6969887166        2.8062169721       -2.6276735930
 O         -2.4577680829        0.9646811303       -1.8104066131
 C         -1.7883398040       -0.2178830563       -1.5270037212
 O         -0.7365347072       -0.3595085193       -2.1823578923
 O         -4.0934850708       -1.5458102975        0.9284415260
 C         -1.6666791108       -2.3973534747       -0.2265577770
 C         -0.4917565382       -2.0896996230        0.6701461670
 C         -0.6300594270       -2.1652368232        2.0522279179
 C          0.4182448049       -1.8194888218        2.8860695973
 C          1.6232577196       -1.3855092903        2.3619773787
 C          1.7655931857       -1.2936732619        0.9838169642
 C          0.7190949593       -1.6581242160        0.1484545703
 H          0.8313415793       -1.5597617290       -0.9204451064
 N          2.9850549403       -0.8384761709        0.4293367531
 S          3.4643880790        0.7138861480        0.8998744990
 O          3.8447761799        0.6723866868        2.2893171979
 O          2.4481079352        1.6851371168        0.5523707716
 C          4.9111588692        0.9322992811       -0.1160982235
 C          6.1238371414        0.4533475712        0.3410305750
 C          7.2442211927        0.5932107388       -0.4623503921
 C          7.1331388595        1.2038404053       -1.7027093527
 C          5.9086393466        1.6787305287       -2.1481403404
 C          4.7838858228        1.5413183226       -1.3497622692
 H          3.8135455495        1.9025932755       -1.6529422490
 H          5.8245979141        2.1543125282       -3.1121662030
 H          8.0062508311        1.3126933882       -2.3265223433
 H          8.1983166744        0.2265799057       -0.1197547973
 H          6.1618176584       -0.0069830942        1.3142835251
 H          2.9350879115       -0.8534128212       -0.5825048202
 H          2.4399417426       -1.0921682438        3.0007695165
 H          0.2960669034       -1.8841502207        3.9569223919
 H         -1.5771570751       -2.4791154611        2.4678611712
 H         -2.4068435910       -2.9490329692        0.3682776221
 C         -1.2930660184       -3.2375805138       -1.4300153498
 C         -0.9636704784       -4.6855338600       -1.2286169264
 C         -2.2420215564       -4.2948915431       -1.9056461354
 H         -2.3363414218       -4.4603818431       -2.9683880200
 H         -3.1669829187       -4.4178870562       -1.3614982967
 H         -0.1780553273       -5.1231027647       -1.8250436025
 H         -1.0206849790       -5.0730421057       -0.2226934166
 H         -0.7431241547       -2.6940511825       -2.1871364838
