  62
        -98.93741783
 C         -1.9268890198       -0.8411218199        0.5035004803
 C         -2.2132420297       -0.2503049698       -0.7481540397
 C         -2.6381864695        1.1600478403       -0.7204884096
 C         -2.6795038593        1.8080691102        0.4564237505
 C         -3.1329657791        3.2203232003        0.7037840306
 C         -4.6221517590        3.2508479805        1.0885009206
 C         -5.5915644791        3.3158762908       -0.0913298793
 H         -6.5997624891        3.1937602909        0.3110020007
 H         -5.5372189989        4.3077464108       -0.5446878293
 C         -5.3681456793        2.2666390608       -1.1837174694
 H         -6.2980797294        2.1680729310       -1.7469963693
 H         -5.1621323995        1.2970363507       -0.7268302194
 C         -4.2375365693        2.6371967506       -2.1552080994
 H         -3.9752425591        3.6851709906       -2.0109149494
 H         -4.5996058194        2.5463406308       -3.1812360694
 C         -2.9715179094        1.7713299604       -2.0540766895
 H         -3.0570955096        0.9175440905       -2.7336115095
 H         -2.1089106494        2.3546098103       -2.3932723795
 H         -4.8294500492        2.3608147305        1.6882728706
 H         -4.8021014189        4.1210270505        1.7230121907
 H         -2.5455252490        3.5927723401        1.5457511006
 H         -2.9360991990        3.8440135203       -0.1631625794
 O         -2.3529793194        1.2116351701        1.6371362304
 C         -1.9723231596       -0.1159432900        1.6921295703
 O         -1.7085670396       -0.5318138301        2.8406877703
 H          0.6066141302       -0.6496935303        0.4003845502
 C          0.7550468201       -1.5381613203       -0.1978329698
 C         -0.2397506401       -2.5064927702       -0.2461054699
 C         -0.0228911403       -3.6432302102       -1.0145192299
 C          1.1580309196       -3.7952929203       -1.7204783700
 C          2.1449832098       -2.8292268305       -1.6696551600
 C          1.9363650500       -1.6855397405       -0.9051870999
 N          2.9024845102       -0.6668683607       -0.8675018499
 S          2.9931461504        0.3493798092        0.4721927502
 O          2.9898216703       -0.4280647508        1.6919327801
 O          1.9815865206        1.3710424894        0.3552068403
 C          4.6070127505        1.0618665890        0.2103964301
 C          4.7298769707        2.1538178590       -0.6277149698
 C          5.9897917208        2.6838676988       -0.8571729698
 C          7.0998507707        2.1157039786       -0.2499120099
 C          6.9610413805        1.0211094185        0.5902559700
 C          5.7039599205        0.4859940187        0.8235987300
 H          5.5454571003       -0.3570216613        1.4767699400
 H          7.8249316605        0.5835919984        1.0639809800
 H          8.0789346808        2.5305362484       -0.4301860699
 H          6.1007081309        3.5366629888       -1.5072312198
 H          3.8373240707        2.5652437992       -1.0698352298
 H          3.8142597301       -0.9677191908       -1.1827284799
 H          3.0643103097       -2.9490785506       -2.2220072800
 H          1.3128941194       -4.6821736803       -2.3159737800
 H         -0.7796280405       -4.4089839200       -1.0624383999
 C         -1.4911441300       -2.2919891000        0.5719486602
 H         -1.2376813200       -2.4823875101        1.6265397102
 C         -2.6353816002       -3.2016014698        0.1716741902
 C         -2.7792671904       -4.5586717298        0.7902913401
 C         -3.7289800602       -3.4611738296        1.1623368802
 H         -4.7467744302       -3.5131835994        0.8060891403
 H         -3.6298872501       -3.0042354397        2.1367603303
 H         -2.0414321905       -4.8561169999        1.5202303401
 H         -3.1499121006       -5.3676549597        0.1790233701
 H         -2.9192600502       -3.0755910597       -0.8667926298
 O         -2.1309351299       -0.8725863097       -1.8402950597
