  62
        -98.94672900
 C         -1.7500068299       -1.3440297407       -0.0529185286
 C         -2.5815533895       -0.6922523210        0.8875133919
 C         -3.1072556799        0.6139552891        0.4767998425
 C         -2.7878458805        1.1125656694       -0.7318565575
 C         -3.2764793509        2.4154885395       -1.3045852770
 C         -2.4613916608        3.6385407495       -0.8635720371
 C         -2.6613609301        4.0680301291        0.5899883931
 H         -2.2023159102        5.0522533491        0.7008609732
 H         -3.7263241900        4.1819728990        0.7947305537
 C         -2.0369526795        3.1143754289        1.6182193526
 H         -1.3143844797        2.4638274091        1.1185479121
 H         -1.4848782392        3.6907434288        2.3641269025
 C         -3.0490370591        2.2499678886        2.3708785129
 H         -3.6947983789        2.8874446584        2.9789159333
 H         -2.5022703787        1.5864285885        3.0463390425
 C         -3.9323680595        1.3814050788        1.4652178331
 H         -4.6677451598        2.0001560488        0.9516404736
 H         -4.4598616791        0.6582989786        2.0923208032
 H         -2.7488293412        4.4716697896       -1.5086962167
 H         -1.4044490208        3.4275799596       -1.0332887876
 H         -3.2004612514        2.3246553398       -2.3900331270
 H         -4.3250498708        2.5590295494       -1.0418590164
 O         -1.9803449308        0.4561315897       -1.6057743981
 C         -1.4275335906       -0.7760079103       -1.2859980486
 O         -0.6882744909       -1.2516691500       -2.1660576891
 O         -2.8675004190       -1.1775147713        2.0161290719
 C         -1.1478736096       -2.6902381207        0.3057202708
 C          0.3575139103       -2.5936542706        0.2913070301
 C          1.1797419901       -3.5055672903       -0.3560005706
 C          2.5549310901       -3.3398873802       -0.3480064112
 C          3.1394000703       -2.2723446503        0.3075662188
 C          2.3253990505       -1.3563071005        0.9638443494
 C          0.9499290306       -1.5257184607        0.9561380700
 H          0.3183332907       -0.8106057108        1.4694915705
 N          2.9086402708       -0.2632202507        1.6396226794
 S          3.7840334902        0.8475995696        0.7454121893
 O          4.8705910300        0.1655086499        0.0907218886
 O          4.1494553706        1.8872451994        1.6800418094
 C          2.6578474396        1.5070227098       -0.4717152200
 C          2.2623421392        0.7079612801       -1.5263137900
 C          1.3710088087        1.2190798402       -2.4563772295
 C          0.9034644886        2.5171685701       -2.3233103289
 C          1.3137475991        3.3091742899       -1.2608522789
 C          2.1915690396        2.7978344098       -0.3190589395
 H          2.5332248899        3.3759489496        0.5245146205
 H          0.9536101690        4.3213095799       -1.1628963385
 H          0.2136695583        2.9097198103       -3.0543551785
 H          1.0314564484        0.5915262304       -3.2645494995
 H          2.6456536292       -0.2958105999       -1.6119391005
 H          2.2557647510        0.2325941591        2.2304452099
 H          4.2063442403       -2.1204277402        0.3044155184
 H          3.1813683899       -4.0535227600       -0.8614458216
 H          0.7454868799       -4.3436449702       -0.8755102906
 H         -1.4686216591       -2.8885602910        1.3395251109
 C         -1.6989987700       -3.7787755505       -0.5903027793
 C         -1.7929889596       -5.1894592607       -0.0927710396
 C         -3.0364145998       -4.3717600507       -0.2668519088
 H         -3.7047904701       -4.6120291906       -1.0799819385
 H         -3.5394188894       -4.0078649010        0.6172974016
 H         -1.6100472499       -5.9955904605       -0.7871356298
 H         -1.4549097291       -5.3886683409        0.9129504102
 H         -1.4640889605       -3.6169524802       -1.6362404293
