  62
        -98.93823512
 C          1.2513454785        1.5419037588       -0.1316675939
 C          1.2923852882        0.1332043822       -0.2559462934
 C          2.4654618406       -0.5413277825        0.3363616481
 C          3.4029168292        0.1905208892        0.9609807234
 C          4.6834758467       -0.2930374482        1.5837743767
 C          5.8462759835       -0.1975919629        0.5814262973
 C          6.0203352700       -1.4185371426       -0.3210176555
 H          6.7844328984       -1.1691582656       -1.0610173557
 H          6.4007575115       -2.2519881492        0.2733208555
 C          4.7561907756       -1.8760797125       -1.0532928484
 H          4.2226292374       -1.0073805182       -1.4432172419
 H          5.0660076315       -2.4762316291       -1.9111030109
 C          3.8178744198       -2.7139977009       -0.1721335109
 H          4.3473801381       -3.0039041173        0.7351095594
 H          3.5665386753       -3.6397247538       -0.6934922308
 C          2.4887009195       -2.0389562649        0.1964570216
 H          1.7445528231       -2.2529044412       -0.5764568003
 H          2.1082606653       -2.4790762398        1.1237177183
 H          5.6882292401        0.6940105488       -0.0309597047
 H          6.7758088727       -0.0513374159        1.1354797305
 H          4.8922243065        0.3748366934        2.4221454505
 H          4.5715526899       -1.3048853701        1.9613548674
 O          3.3218315789        1.5459688042        1.0645033418
 C          2.2625935842        2.2480290462        0.5269901068
 O          2.3318770616        3.4831175092        0.6921014430
 H         -1.5875558631        0.3065429401       -0.2634412721
 C         -1.8561999971        1.1754690780        0.3146040790
 C         -1.0857280501        2.3268964593        0.2278950303
 C         -1.4308747758        3.4244567484        1.0090245334
 C         -2.5288715960        3.3736085948        1.8486596204
 C         -3.3085052046        2.2333588688        1.9149173415
 C         -2.9653346763        1.1262494841        1.1459406841
 N         -3.7153611215       -0.0530798179        1.2235872851
 S         -3.8917846806       -1.0670261472       -0.0939759763
 O         -3.9421685823       -0.3318672271       -1.3361310487
 O         -5.0780824366       -1.8393992524        0.2214423111
 C         -2.4927263195       -2.1632178734       -0.0480286723
 C         -1.9490086577       -2.6059333404       -1.2355560194
 C         -0.9145602994       -3.5259695973       -1.1972406109
 C         -0.4446150246       -3.9845375670        0.0224077763
 C         -0.9983536888       -3.5251174793        1.2071326225
 C         -2.0361502926       -2.6088210343        1.1755545466
 H         -2.4884134630       -2.2294843235        2.0771519963
 H         -0.6230522611       -3.8771450912        2.1550555142
 H          0.3641811427       -4.6980845541        0.0503310161
 H         -0.4742983280       -3.8737897371       -2.1182576525
 H         -2.3341656921       -2.2127772987       -2.1630494815
 H         -4.5585284690        0.0027290209        1.7753419037
 H         -4.1723892116        2.1945824832        2.5610852468
 H         -2.7859948854        4.2326817675        2.4497831542
 H         -0.8219244092        4.3159030650        0.9615905741
 C          0.1163382822        2.3911461295       -0.6839732540
 H          0.4907158839        3.4239041441       -0.6691219171
 C         -0.2547603234        2.0416350264       -2.1114891196
 C         -0.9505962724        3.0697728325       -2.9494717131
 C          0.4726775179        2.7014979721       -3.2420657428
 H          0.6860373899        2.1207061899       -4.1268646252
 H          1.2447299526        3.4148498673       -2.9912095854
 H         -1.7212616970        2.7407185029       -3.6297697010
 H         -1.1423942294        4.0337572492       -2.5023267454
 H         -0.5452876108        1.0081978899       -2.2451055402
 O          0.4123107690       -0.5542016458       -0.8373871961
