  62
        -98.94417987
 C          2.6471324696       -1.0881282625       -0.1940068240
 C          2.7503950029       -0.2828009513        0.9661736259
 C          3.5505748230        0.9423561052        0.8236733217
 C          4.1276801425        1.2205949191       -0.3595151602
 C          4.9131388912        2.4639910356       -0.6590739460
 C          4.0071127611        3.5705266360       -1.2177009208
 C          2.7396309200        3.8056029999       -0.3956145177
 H          2.1926162687        4.6241765996       -0.8687009759
 H          2.1047349955        2.9182987770       -0.4569106108
 C          2.9932675391        4.1440518911        1.0801391718
 H          2.3523119346        4.9820629659        1.3616652452
 H          4.0263178218        4.4672477188        1.2128933235
 C          2.6899667734        3.0035508893        2.0537151472
 H          1.6870990588        2.6131077962        1.8618567890
 H          2.6934511397        3.4124671244        3.0674426948
 C          3.6754843960        1.8283506614        2.0310372445
 H          4.6965408931        2.2010910834        2.1328473107
 H          3.4523862271        1.1921276364        2.8923795710
 H          3.7106134277        3.2958301368       -2.2329409645
 H          4.5842213551        4.4953257220       -1.2717530348
 H          5.6739583016        2.2202238337       -1.4024379433
 H          5.4034209708        2.8056969552        0.2502718436
 O          4.0127955172        0.4167377606       -1.4487113353
 C          3.2589095320       -0.7450733298       -1.3984053039
 O          3.2065805008       -1.3727115376       -2.4769017276
 O          2.2011947770       -0.5675115680        2.0612456698
 C          1.8193727242       -2.3594587089       -0.1550721685
 C          0.3907839361       -2.0386344072        0.2161264619
 C         -0.3482761466       -2.7866811084        1.1227259190
 C         -1.6592130790       -2.4455519918        1.4087419297
 C         -2.2608733008       -1.3595310999        0.8009157612
 C         -1.5365533458       -0.6132119515       -0.1197702077
 C         -0.2263801096       -0.9615060525       -0.4086336628
 H          0.3357354738       -0.3806472456       -1.1312478097
 N         -2.1358141151        0.4990621108       -0.7382952831
 S         -3.6264694397        0.2794385183       -1.4820806878
 O         -3.7856615675       -1.0763625182       -1.9550745320
 O         -3.7067414407        1.3222889301       -2.4816930196
 C         -4.8045446145        0.6205787002       -0.1918812866
 C         -5.7613537321       -0.3205444713        0.1340633307
 C         -6.6740323873       -0.0283356072        1.1358144886
 C         -6.6144387434        1.1931801771        1.7889465609
 C         -5.6487693410        2.1285361530        1.4475849810
 C         -4.7341422203        1.8432794454        0.4465074552
 H         -3.9708878083        2.5429501876        0.1490199124
 H         -5.6052929599        3.0772735610        1.9578221742
 H         -7.3248345999        1.4181043647        2.5686845443
 H         -7.4256178031       -0.7538221533        1.4024990891
 H         -5.7654806678       -1.2587183173       -0.3975716543
 H         -1.5116812982        1.0059622334       -1.3491456055
 H         -3.2781760606       -1.0860947837        1.0282411426
 H         -2.2189806803       -3.0320304833        2.1211009620
 H          0.1034268822       -3.6351483594        1.6096169376
 H          1.8198031386       -2.7555184841       -1.1818893869
 C          2.4685012523       -3.3778134065        0.7593014925
 C          2.3135435061       -4.8437629551        0.4911139629
 C          3.6295526291       -4.1715320464        0.2431845857
 H          4.4514358348       -4.3787028969        0.9118679138
 H          3.9328527455       -3.9967139506       -0.7792508364
 H          2.2352186288       -5.5168664819        1.3315168768
 H          1.7260522401       -5.1366609019       -0.3660812313
 H          2.5086698140       -3.0441651044        1.7896508063
