  62
        -98.93543689
 C         -1.0025127014       -1.6784922598        0.3133666798
 C         -1.7370061414       -0.8336808595        1.1806074395
 C         -2.9278667711       -0.1707581893        0.6162467790
 C         -3.2085243907       -0.3425943894       -0.6870443911
 C         -4.3490075403        0.2360077308       -1.4803413316
 C         -3.9613816297        1.5788241506       -2.1225307516
 C         -4.2258725597        2.8044348708       -1.2504992418
 H         -3.8202332594        3.6714359706       -1.7762625418
 H         -5.3035910097        2.9524749910       -1.1555380522
 C         -3.6088331202        2.7414705008        0.1479378884
 H         -2.5973675603        2.3382346905        0.0789205088
 H         -3.5333577601        3.7614039508        0.5288006283
 C         -4.4303658108        1.9041823011        1.1385158982
 H         -5.4011386907        1.6712561313        0.7024605179
 H         -4.6296764909        2.4928672813        2.0367628981
 C         -3.7478689512        0.6143260010        1.6048385586
 H         -3.0532161915        0.8439501510        2.4195520588
 H         -4.5043808515       -0.0555471587        2.0295759884
 H         -2.9012361597        1.5335921303       -2.3842204412
 H         -4.5231167994        1.6955875206       -3.0515044218
 H         -4.5589171302       -0.4820151293       -2.2760912915
 H         -5.2367991305        0.3371990211       -0.8631236419
 O         -2.4129283506       -1.0806636397       -1.5099753007
 C         -1.3066664909       -1.7741427299       -1.0451295903
 O         -0.7047500808       -2.4111581602       -1.9281996200
 O         -1.4164388618       -0.6436187494        2.3851576195
 C          0.1766358383       -2.4354833400        0.8957481203
 C          1.3937535886       -2.2790575804        0.0204622007
 C          1.9953100386       -3.3305928207       -0.6575991190
 C          3.1128789089       -3.1059380610       -1.4417672486
 C          3.6650430992       -1.8428122912       -1.5446253686
 C          3.0706859093       -0.7823527209       -0.8692993189
 C          1.9370374990       -1.0063856906       -0.1061969293
 H          1.4686637990       -0.1801254504        0.4085093305
 N          3.6000329596        0.5137956389       -0.9567863289
 S          3.6239967094        1.5103986191        0.3875287710
 O          4.7233833697        2.4196557988        0.1409426212
 O          3.6891560688        0.7500271692        1.6129489011
 C          2.1029033296        2.4284696094        0.2915791603
 C          1.9216464302        3.2579962893       -0.7977830898
 C          0.7622562604        4.0109686196       -0.8813557303
 C         -0.1912132999        3.9232569700        0.1217356394
 C          0.0025727595        3.0824590401        1.2067545696
 C          1.1617516493        2.3279867998        1.2962814400
 H          1.3448938688        1.6643478699        2.1276230402
 H         -0.7422369208        3.0042528003        1.9830586693
 H         -1.0908717998        4.5144714802        0.0592659990
 H          0.6049661609        4.6646658995       -1.7240989404
 H          2.6927036605        3.3065932891       -1.5485133496
 H          4.4508835698        0.5887238487       -1.4947472186
 H          4.5445157895       -1.6727333815       -2.1472853783
 H          3.5656978389       -3.9287287512       -1.9742377584
 H          1.5748486883       -4.3204863305       -0.5920872390
 H          0.3879670381       -1.9228173699        1.8496856503
 C         -0.1282140622       -3.8846887799        1.2458092704
 C         -1.5022107424       -4.2994576595        1.6777432300
 C         -0.9538524121       -4.7740146298        0.3671204502
 H         -0.6683195023       -5.8121393099        0.2787039204
 H         -1.3504597317       -4.3521724798       -0.5428826600
 H         -1.5941284329       -5.0085720894        2.4866867100
 H         -2.2779340123       -3.5475399193        1.6655503196
 H          0.7002887475       -4.3527416900        1.7693059007
