  62
        -98.93877560
 C          1.8475194795        0.7003599406        0.3336364103
 C          2.1835287794       -0.5529585095       -0.2418184095
 C          3.5646688393       -0.7085547197       -0.7081999096
 C          4.4233114294        0.3203544203       -0.5938282598
 C          5.8602590894        0.3303047001       -1.0404421198
 C          6.8344477594       -0.2840891398       -0.0258997398
 C          6.7684010693       -1.8066650698        0.1008497804
 H          6.8490753592       -2.2560525399       -0.8893987295
 H          7.6449432493       -2.1185014498        0.6723192104
 C          5.5086723393       -2.3298449096        0.8050660605
 H          5.7907455392       -3.0850895896        1.5421401706
 H          5.0308780394       -1.5129696595        1.3508660205
 C          4.4797601692       -2.9684492497       -0.1278480893
 H          4.9043156691       -3.8666050897       -0.5817568392
 H          3.6151733992       -3.2684821895        0.4694166407
 C          3.9833312292       -2.0433784898       -1.2465129894
 H          4.7565471092       -1.9212402599       -2.0048216695
 H          3.1069822292       -2.5034308998       -1.7093946393
 H          6.6548356495        0.1712231503        0.9508142702
 H          7.8449125394       -0.0106780499       -0.3385728999
 H          5.9507202493       -0.1898916200       -1.9945301898
 H          6.1324632495        1.3776533401       -1.1879851200
 O          4.0601292795        1.5145631604       -0.0594951499
 C          2.7733641996        1.7408688205        0.4232251501
 O          2.6136305797        2.8850450006        0.8841059900
 H         -2.0154654206       -0.0676524291        0.1699052206
 C         -1.7340518805        0.7785998408       -0.4368215295
 C         -0.4922671505        1.3678933507       -0.2543873497
 C         -0.1322338804        2.4370005506       -1.0677885098
 C         -1.0041953205        2.9021733305       -2.0354334498
 C         -2.2546028205        2.3301537706       -2.1937059597
 C         -2.6243952905        1.2625020207       -1.3848679796
 N         -3.8802036806        0.6540289208       -1.5118615394
 S         -4.7044831306        0.1827725110       -0.1301211594
 O         -6.0938548806        0.1437394811       -0.5319534993
 O         -4.3860393105        1.0382455511        0.9883655305
 C         -4.1422285807       -1.4772385090        0.1780721108
 C         -4.2540551308       -2.4055344791       -0.8378668290
 C         -3.8253060309       -3.7027625591       -0.6084220689
 C         -3.2963976409       -4.0481170890        0.6261145311
 C         -3.1957916808       -3.1056931889        1.6376780010
 C         -3.6231441507       -1.8064136089        1.4144690309
 H         -3.5557684406       -1.0411999288        2.1723174808
 H         -2.7826019207       -3.3749892188        2.5965847310
 H         -2.9588028509       -5.0573583290        0.8017546112
 H         -3.9008494510       -4.4395923992       -1.3918421588
 H         -4.6721994708       -2.0998153392       -1.7823751391
 H         -4.4938719106        1.0776312808       -2.1923888495
 H         -2.9384821805        2.7062840605       -2.9394175597
 H         -0.7128529204        3.7304008704       -2.6640062200
 H          0.8315623096        2.9038115005       -0.9283576899
 C          0.4202288995        0.8473260008        0.8262165804
 H          0.0957723994       -0.1817501992        1.0513810005
 C          0.2932722296        1.6471783009        2.1149615403
 C         -0.2274648903        3.0481992110        2.1718871101
 C         -1.0565394203        1.9230629111        2.7106243503
 H         -1.1729357303        1.8359659013        3.7806811803
 H         -1.9340152204        1.6351672911        2.1487497204
 H          0.2450901498        3.7307525310        2.8615232200
 H         -0.5383272603        3.5137625909        1.2498854701
 H          1.0890652796        1.4080386010        2.8138817003
 O          1.3607714493       -1.5006657795       -0.3550338894
