  62
        -98.94266742
 C          0.6399395769        1.4550443777        0.0529322644
 C          1.5394572489        1.0922117646        1.0782724988
 C          2.4871549722        0.0013103939        0.7790011867
 C          2.4395506820       -0.5809920962       -0.4340467683
 C          3.3659653168       -1.6246089121       -0.9991112216
 C          4.7384743611       -1.0497319157       -1.3896581445
 C          5.3535613398       -0.0882789637       -0.3764035864
 H          6.2605851551        0.3285216279       -0.8221064642
 H          4.6661393060        0.7421226605       -0.2052368925
 C          5.7367013844       -0.7127136096        0.9629500097
 H          6.2352913570        0.0610954424        1.5523010331
 H          6.4574171407       -1.5155978943        0.7923692891
 C          4.5782042633       -1.2686502066        1.7934152033
 H          4.9581645391       -1.4538297556        2.8025955813
 H          4.2450784036       -2.2291444259        1.4095553772
 C          3.3916253970       -0.3215156207        1.9438997252
 H          2.7290198461       -0.7143321724        2.7262846883
 H          3.7479706648        0.6417282831        2.3268801697
 H          5.4223742777       -1.8819477864       -1.5643683287
 H          4.6197063103       -0.5065316337       -2.3300436539
 H          3.4754598577       -2.4471389387       -0.2985248470
 H          2.8879264936       -2.0095766635       -1.9014019732
 O          1.5206031405       -0.2277243676       -1.3772755762
 C          0.5931438621        0.7737025012       -1.1624090201
 O         -0.1952134201        0.9628932661       -2.1069752405
 O          1.5690332368        1.6688990893        2.2012829968
 C         -0.3286685925        2.5980515431        0.2852866709
 C         -1.7542389955        2.1362563583        0.1183084910
 C         -2.7295062025        2.8987075564       -0.5126405799
 C         -4.0241939390        2.4236084942       -0.6283155230
 C         -4.3717691078        1.1828371615       -0.1276485928
 C         -3.4041081883        0.4161812316        0.5135590442
 C         -2.1126302500        0.9001970874        0.6410089890
 H         -1.3727094541        0.3011731992        1.1521803706
 N         -3.7259306984       -0.8438321469        1.0376434778
 S         -2.5943523675       -2.0458647842        1.2178969063
 O         -3.3863674503       -3.2437239131        1.4120374169
 O         -1.6836564700       -1.7295789871        2.2917136569
 C         -1.6890384947       -2.2167733531       -0.3114418925
 C         -0.4912212930       -2.8997035782       -0.2386187336
 C          0.2082410209       -3.1618575126       -1.4041011451
 C         -0.2895081378       -2.7197564049       -2.6195111156
 C         -1.4865928249       -2.0262314369       -2.6760795323
 C         -2.2035485492       -1.7822994836       -1.5152474851
 H         -3.1369431215       -1.2447897946       -1.5492302196
 H         -1.8650751807       -1.6677803125       -3.6194450604
 H          0.2615164926       -2.9108927321       -3.5268793697
 H          1.1372987553       -3.7069675054       -1.3580487228
 H         -0.1300698793       -3.2064440921        0.7306951786
 H         -4.6360074196       -1.2046715773        0.7939150543
 H         -5.3787276414        0.8074799022       -0.2268041038
 H         -4.7715722312        3.0246329116       -1.1233118118
 H         -2.4753066589        3.8643150405       -0.9174523244
 H         -0.1870915876        2.8941419227        1.3361784532
 C          0.0315086226        3.7705938233       -0.6051027183
 C         -0.2108663325        5.1773328531       -0.1482685597
 C          1.1869272845        4.6423403389       -0.2175737193
 H          1.8434920523        5.0056182324       -0.9938564511
 H          1.6932586786        4.4081884451        0.7077445554
 H         -0.5119531741        5.9128270894       -0.8790503601
 H         -0.6496815774        5.3180523052        0.8280149472
 H         -0.0921581278        3.5431654181       -1.6581255240
