  62
        -98.94318528
 C         -0.8274331502       -1.6848847800       -0.8398353097
 C         -1.9656569102       -2.0561812197       -0.0780207196
 C         -3.1155926701       -1.1492599995       -0.1386727197
 C         -3.0501949599       -0.0447156696       -0.9037358198
 C         -4.1503109997        0.9638066306       -1.0967710899
 C         -4.2250690194        2.0295358607        0.0046619200
 C         -4.7519137295        1.5392936310        1.3535294100
 H         -4.9564093494        2.4242668711        1.9593626699
 H         -5.6996551196        1.0198297011        1.2085443901
 C         -3.7766279897        0.6323870909        2.1171524101
 H         -2.7739777697        0.7363267806        1.6954653401
 H         -3.7204297396        0.9518692910        3.1601433401
 C         -4.1599623400       -0.8474734491        2.1175286402
 H         -5.1009119800       -0.9833642888        2.6556705203
 H         -3.3840203101       -1.4035950592        2.6500489903
 C         -4.3050995901       -1.4604263792        0.7185030503
 H         -4.3635423803       -2.5465682092        0.8240305404
 H         -5.2201130901       -1.1055182990        0.2444993403
 H         -3.2295873394        2.4547323506        0.1399524699
 H         -4.8867443193        2.8215718908       -0.3532823901
 H         -3.9492099196        1.4630487505       -2.0468235700
 H         -5.1078792298        0.4473362508       -1.1724263299
 O         -1.9502363698        0.2699407601       -1.6345731599
 C         -0.8055966700       -0.5226313801       -1.6126523598
 O          0.1141989301       -0.0798838103       -2.3224141799
 O         -2.0185601404       -3.1092742196        0.6129279605
 C          0.3757666396       -2.6046818802       -0.7382174096
 C          1.2515845597       -2.2001276103        0.4204108203
 C          1.6941830196       -3.1416883403        1.3423544104
 C          2.4930454496       -2.7621258503        2.4062357004
 C          2.8757544899       -1.4421547404        2.5607801503
 C          2.4352804401       -0.4916775304        1.6463055702
 C          1.6192092200       -0.8728749803        0.5914484002
 H          1.2790874001       -0.1300411903       -0.1134559499
 N          2.7837782603        0.8587917595        1.7849762800
 S          3.1128356505        1.7692744593        0.4167012599
 O          3.7373595203        0.9678676891       -0.6088414200
 O          3.9035105507        2.8776498092        0.9144098598
 C          1.5397199906        2.4052216396       -0.1131211001
 C          1.2763700106        2.5208335295       -1.4622165401
 C          0.0797551907        3.0936438697       -1.8629990802
 C         -0.8242774292        3.5397659800       -0.9134671902
 C         -0.5451161692        3.4134544501        0.4397268898
 C          0.6491933807        2.8434231499        0.8474790098
 H          0.8998083307        2.7285029499        1.8892320699
 H         -1.2520935391        3.7593685903        1.1777685998
 H         -1.7532424891        3.9868508001       -1.2321688003
 H         -0.1436406292        3.1752937696       -2.9143512902
 H          1.9946907906        2.1429438993       -2.1715687201
 H          3.4283687804        1.0612775195        2.5353955000
 H          3.5058877800       -1.1443536204        3.3850238702
 H          2.8272718095       -3.5013517403        3.1182535905
 H          1.3955782894       -4.1733574902        1.2279298505
 H         -0.0441830005       -3.5953996101       -0.4990820095
 C          1.1534551396       -2.7510861705       -2.0372137596
 C          2.4551947997       -2.0674498808       -2.3143229297
 C          2.4264930095       -3.5447453008       -2.0687405495
 H          2.6011479093       -4.2112212409       -2.8998883295
 H          2.8155458494       -3.9004108407       -1.1264530795
 H          2.6223897498       -1.7109996509       -3.3197139097
 H          2.8780783699       -1.4179476408       -1.5629222097
 H          0.4886589896       -2.8662079205       -2.8880393396
