  62
        -98.94409031
 C          2.1946296584        1.2547331491       -0.1525571601
 C          2.6072566066        0.1624534517       -0.9531210735
 C          3.9932999396       -0.2812173200       -0.7553820914
 C          4.7844216383        0.3594569771        0.1241273186
 C          6.2245020475        0.0379574739        0.4187408937
 C          6.4149092310       -1.0886346725        1.4435886906
 C          6.0870942019       -2.4931607944        0.9352452507
 H          6.6234049573       -2.6757885571        0.0035148257
 H          6.4701693926       -3.1990693648        1.6748803891
 C          4.5890464051       -2.7590521107        0.7299253429
 H          4.0070569997       -2.0050933759        1.2650825139
 H          4.3280863180       -3.7280899531        1.1613137078
 C          4.1426326446       -2.7803793237       -0.7320724838
 H          3.0606394544       -2.9352677744       -0.7573284633
 H          4.6151323565       -3.6197458689       -1.2473587369
 C          4.4550649857       -1.4932138020       -1.5064242984
 H          5.5226282377       -1.4294712465       -1.7161454528
 H          3.9121507634       -1.5238645842       -2.4543344779
 H          7.4622744112       -1.0731767006        1.7536857308
 H          5.8049476976       -0.8681281029        2.3226520948
 H          6.7399121364       -0.2194945216       -0.5069413779
 H          6.6698612662        0.9494565846        0.8231920413
 O          4.3545233666        1.4201730336        0.8581772521
 C          3.0500281141        1.8754006285        0.7583500690
 O          2.7775215956        2.8265563534        1.5184458338
 O          1.8658778773       -0.4109831457       -1.7929856038
 C          0.7715710709        1.7782611610       -0.2484649711
 C         -0.1846391278        0.6733245454        0.1291403962
 C         -0.1044603626        0.1367757180        1.4120219178
 C         -0.9394995973       -0.8917014540        1.8032516239
 C         -1.8743174310       -1.4097939045        0.9233935220
 C         -1.9665958690       -0.8780443628       -0.3551021465
 C         -1.1338187199        0.1654392204       -0.7423199490
 H         -1.2155299290        0.5611225182       -1.7420890056
 N         -2.9140741001       -1.3961704900       -1.2526618431
 S         -4.4724098413       -1.6560975007       -0.7068567711
 O         -4.5264296000       -2.8761232644        0.0590651511
 O         -5.2990532854       -1.6154320169       -1.8922320257
 C         -4.8251822056       -0.2610805548        0.3480128306
 C         -4.8796316523        0.9915182078       -0.2311330301
 C         -5.1124180043        2.0934681688        0.5750721531
 C         -5.2818017668        1.9255043094        1.9411298183
 C         -5.2274227602        0.6614045302        2.5068479743
 C         -4.9950466080       -0.4447374789        1.7048182858
 H         -4.9468430538       -1.4445047324        2.1043221767
 H         -5.3616121410        0.5338730296        3.5689500598
 H         -5.4590895252        2.7856217347        2.5673936381
 H         -5.1580538219        3.0777962747        0.1373469216
 H         -4.7519154313        1.0855504056       -1.2974843534
 H         -2.9049813196       -0.9583110916       -2.1616032160
 H         -2.5212537927       -2.2250278773        1.2036662564
 H         -0.8602726861       -1.2995561286        2.7996064426
 H          0.6319031110        0.5368007824        2.0962274304
 H          0.6900103039        2.5713960493        0.5079128453
 C          0.5152167642        2.3791680595       -1.6140626056
 C         -0.5863406984        3.3792561413       -1.7939140970
 C          0.8445573336        3.8219611677       -1.8449717559
 H          1.2641282352        4.1082722248       -2.7977884696
 H          1.2401891385        4.3810822962       -1.0095631251
 H         -1.1504028701        3.3678893812       -2.7144161275
 H         -1.1659824709        3.6431811956       -0.9225388530
 H          0.7193632245        1.6877809680       -2.4233850627
