  62
        -98.93304547
 C         -2.1390299170       -1.1652553174       -0.4711983784
 C         -3.2087994512       -0.8802537608        0.4148339969
 C         -3.9044859640        0.4076958718        0.2455760938
 C         -3.5038637839        1.2367916723       -0.7344896561
 C         -4.0383221879        2.5976043361       -1.1030941150
 C         -5.5664073421        2.7561409357       -1.1270368286
 C         -6.1070008558        3.6159892236        0.0167502146
 H         -5.4221039139        4.4513196059        0.1769316784
 H         -7.0684872174        4.0362537881       -0.2863728123
 C         -6.3213905416        2.8792109363        1.3376655095
 H         -7.1806004943        2.2116109072        1.2439340884
 H         -6.5707638353        3.6255697968        2.0955028616
 C         -5.1269146885        2.0604787264        1.8317280359
 H         -5.2331750789        1.9326553141        2.9111493803
 H         -4.1961132735        2.6029147710        1.6677089028
 C         -5.0367767388        0.6618425492        1.2029557064
 H         -4.9046679546       -0.0866606066        1.9903011466
 H         -5.9800347281        0.4140683486        0.7077120575
 H         -6.0404850419        1.7759830894       -1.1215584751
 H         -5.8349765675        3.2400182545       -2.0674420938
 H         -3.6278234596        2.8032944036       -2.0943708272
 H         -3.5980094071        3.3347854589       -0.4266472553
 O         -2.4668953481        0.9264212549       -1.5615335132
 C         -1.7553422354       -0.2559637441       -1.4554644714
 O         -0.8375051740       -0.3554259351       -2.2955196748
 O         -3.5746674167       -1.6799044427        1.3181690299
 C         -1.4238657446       -2.4926789897       -0.2744015539
 C         -0.1408096571       -2.2871992715        0.4954231827
 C         -0.0044868078       -2.7616482320        1.7946969038
 C          1.1611281648       -2.5405642412        2.5078115583
 C          2.2127466076       -1.8409150032        1.9432441448
 C          2.0805110217       -1.3532999172        0.6499440946
 C          0.9167198744       -1.5865948925       -0.0673202598
 H          0.8156913890       -1.1892775395       -1.0666771950
 N          3.1436664357       -0.6250172568        0.0612889165
 S          3.4630083217        0.8881436611        0.7460822419
 O          3.6500502760        0.7244023291        2.1647925465
 O          2.4531313438        1.8456382070        0.3418822480
 C          5.0184137220        1.2727050096       -0.0327924391
 C          5.0307080641        2.0362192149       -1.1837737868
 C          6.2433623658        2.2962619726       -1.8028846978
 C          7.4157345194        1.7875620644       -1.2648345548
 C          7.3869215871        1.0219705267       -0.1086595878
 C          6.1779234016        0.7591818144        0.5151875653
 H          6.1072211781        0.1760940213        1.4182135420
 H          8.3008903019        0.6297024982        0.3071283078
 H          8.3575619311        1.9913527529       -1.7492405034
 H          6.2681925449        2.8928114620       -2.7006763886
 H          4.0959294551        2.4183814319       -1.5625232716
 H          2.9588703293       -0.4692733733       -0.9227915083
 H          3.1163190411       -1.6450504593        2.4959251685
 H          1.2514450192       -2.9155457993        3.5160893296
 H         -0.8288905237       -3.2903816168        2.2510425844
 H         -2.0978016229       -3.0892437956        0.3547536858
 C         -1.1821468953       -3.2459737585       -1.5672779264
 C         -0.9314074763       -4.7220028133       -1.5092697127
 C         -2.2229982341       -4.2021721304       -2.0636559940
 H         -2.3944847465       -4.2679225039       -3.1275547772
 H         -3.1177445776       -4.3190353153       -1.4697068156
 H         -0.2130588100       -5.1490064988       -2.1919095592
 H         -0.9502494272       -5.1929600548       -0.5381680287
 H         -0.6445632990       -2.6709277753       -2.3095769863
