  62
        -98.94393107
 C         -1.7873864387       -0.6420315141        0.5600787897
 C         -3.0640789128       -0.6202394300        1.1704868602
 C         -4.2092261871       -0.5378996696        0.2571794101
 C         -4.0019275596       -0.5121615385       -1.0721818861
 C         -5.0678872940       -0.4561328195       -2.1327340191
 C         -5.5759932191        0.9603412084       -2.4345678535
 C         -6.4624145288        1.5780573224       -1.3523194851
 H         -6.9205919129        2.4701660604       -1.7840473693
 H         -7.2681561543        0.8860942168       -1.1050976128
 C         -5.7140047041        1.9781121909       -0.0731003374
 H         -4.6421088140        2.0267471141       -0.2792312462
 H         -6.0253974463        2.9793668700        0.2333638402
 C         -5.9484108813        1.0468975915        1.1165155554
 H         -5.3435128200        1.4026292199        1.9547178357
 H         -6.9977255918        1.0930527120        1.4162520430
 C         -5.5790620744       -0.4189913391        0.8537330740
 H         -5.5724470608       -0.9472852748        1.8103721350
 H         -6.3203604147       -0.8827843243        0.2032967810
 H         -6.1533370401        0.9089548772       -3.3606024450
 H         -4.7159806508        1.6094517814       -2.6156020347
 H         -4.6218148879       -0.8622168112       -3.0431722750
 H         -5.9064585070       -1.0904124079       -1.8439155133
 O         -2.7592902612       -0.5564324133       -1.6207388167
 C         -1.6223683493       -0.6025481337       -0.8248317525
 O         -0.5533365526       -0.6090160719       -1.4609856231
 H          2.1687230561       -0.6110614781        1.6369052184
 C          1.7352269131        0.3412026585        1.3715019900
 C          0.3591920412        0.4605218010        1.2336023360
 C         -0.1630005460        1.7094739251        0.9112919783
 C          0.6660388914        2.7941220626        0.6943552167
 C          2.0389294820        2.6642742811        0.8107399044
 C          2.5695920796        1.4321255302        1.1615978009
 N          3.9739793976        1.3043870265        1.2780722934
 S          4.8079543318        1.2388281535       -0.1761411016
 O          6.2067131663        1.1358088784        0.1721993582
 O          4.4250711158        2.3709357112       -0.9783537557
 C          4.2561445398       -0.2863739217       -0.9168721629
 C          3.0024549110       -0.3289870413       -1.4928898495
 C          2.5211898175       -1.5407649358       -1.9634993282
 C          3.3020705450       -2.6812096367       -1.8553349481
 C          4.5641739584       -2.6206325632       -1.2821660360
 C          5.0440276662       -1.4150736891       -0.7973630375
 H          6.0141766211       -1.3230654207       -0.3359521426
 H          5.1685714248       -3.5101859099       -1.2038517281
 H          2.9215156443       -3.6232323271       -2.2185812393
 H          1.5271287868       -1.5763282503       -2.3807352633
 H          2.4099107049        0.5685716911       -1.5660448116
 H          4.2546735001        0.5152544421        1.8450172217
 H          2.7030939359        3.4915914624        0.6222476474
 H          0.2394728643        3.7504338080        0.4309576069
 H         -1.2348400224        1.8206167474        0.8190342143
 C         -0.5584323422       -0.7193151815        1.4440841347
 H         -0.9409132594       -0.6748502081        2.4756200419
 C          0.1446641704       -2.0480851080        1.2418313433
 C          0.8064588219       -2.7486948599        2.3900526741
 C         -0.4706065602       -3.2860096572        1.8195432615
 H         -0.4383213970       -4.1971626205        1.2416792414
 H         -1.3781775027       -3.1651003324        2.3930668561
 H          1.7183467937       -3.2961539029        2.2032378692
 H          0.7636623035       -2.2761675811        3.3600564374
 H          0.6033271783       -2.1271950478        0.2623763258
 O         -3.2367119234       -0.6676389346        2.4185023242
