  62
        -98.93955847
 C         -2.5635976216       -0.7549636335        0.6801166307
 C         -3.0601034141       -0.2286806749       -0.5371852322
 C         -3.6059273515        1.1350323168       -0.4678877889
 C         -3.5978756003        1.7914563964        0.7065380346
 C         -4.0690775573        3.2025680116        0.9042762668
 C         -2.9197178523        4.2033433966        0.7188455505
 C         -2.1082287043        3.9832535215       -0.5580547760
 H         -1.3458127683        4.7641911957       -0.5975379697
 H         -1.5849787353        3.0264656424       -0.4896558621
 C         -2.9373083243        4.0130136943       -1.8496296288
 H         -3.8972065180        4.4959460987       -1.6630140022
 H         -2.4092694658        4.6165082944       -2.5907778838
 C         -3.1757545758        2.6404938872       -2.4820620570
 H         -2.2240020065        2.1128050545       -2.5862258660
 H         -3.5754188958        2.7944240830       -3.4879404199
 C         -4.1543569753        1.7238702345       -1.7370660615
 H         -5.0860589661        2.2591887742       -1.5431832693
 H         -4.3744889234        0.8741714114       -2.3899127636
 H         -3.3375612503        5.2116303029        0.7169622593
 H         -2.2444145425        4.1168179103        1.5731879086
 H         -4.8677567660        3.4151907966        0.1965021047
 H         -4.4602905251        3.2955842903        1.9187820943
 O         -3.1031078604        1.2552747965        1.8521358307
 C         -2.5639781470       -0.0203849512        1.8652266361
 O         -2.1180251748       -0.3792132733        2.9751250912
 H          0.1208180517       -0.5387643262        0.8215838764
 C          0.2494902025       -1.2734538258        0.0349495415
 C         -0.7541674205       -2.2127115601       -0.1737490983
 C         -0.5751406264       -3.1616955236       -1.1700478374
 C          0.5711067601       -3.1511553458       -1.9471907556
 C          1.5590624016       -2.2055390544       -1.7475747248
 C          1.3968541948       -1.2588461797       -0.7431475089
 N          2.3928325997       -0.2810170605       -0.5319335820
 S          3.9769134757       -0.8543761492       -0.3689342003
 O          4.4776961297       -1.1887746419       -1.6778768242
 O          4.0222606171       -1.9145265276        0.6142879601
 C          4.8107162183        0.5967925734        0.2407349354
 C          5.1716207517        1.5804788057       -0.6603491300
 C          5.8063861403        2.7186255660       -0.1893775622
 C          6.0681959581        2.8532736422        1.1661727163
 C          5.7007181145        1.8569095318        2.0579136556
 C          5.0636435378        0.7166501860        1.5938215880
 H          4.7678336258       -0.0867158668        2.2496758548
 H          5.9079104059        1.9627308263        3.1106844952
 H          6.5647494769        3.7388517393        1.5301698844
 H          6.0959109422        3.4948355929       -0.8792054085
 H          4.9573114109        1.4277177368       -1.7050945486
 H          2.1645512749        0.3092563072        0.2575954372
 H          2.4563817064       -2.1942493598       -2.3443787337
 H          0.6961016979       -3.8913338229       -2.7232209415
 H         -1.3332276006       -3.9072077494       -1.3439828279
 C         -1.9713192151       -2.1528362768        0.7186421488
 H         -1.6348544708       -2.3111822617        1.7539966642
 C         -3.0266938427       -3.1863063313        0.3880347816
 C         -2.8967650344       -4.5846192784        0.9101183550
 C         -3.9349782448       -3.6657066157        1.4786264643
 H         -4.9725000734       -3.8483178115        1.2425585053
 H         -3.7773156108       -3.2631282692        2.4689307171
 H         -3.2240213462       -5.4016578974        0.2850721193
 H         -2.0340656366       -4.8128875634        1.5178675957
 H         -3.4590903787       -3.0428540506       -0.5950969252
 O         -3.0516557908       -0.8604246443       -1.6250538095
