  62
        -98.94790780
 C         -0.7861677363       -1.1437834695        0.5884603719
 C         -1.2995839065       -0.7400580554       -0.6674340581
 C         -2.2321863293        0.3955500271       -0.6394239323
 C         -2.4691721163        1.0246803535        0.5254000712
 C         -3.4701912121        2.1266175017        0.7148631323
 C         -4.8422736764        1.5607752312        1.1098433534
 C         -5.3244151861        0.4207774899        0.2124348394
 H         -4.6659669676       -0.4406864303        0.3458090877
 H         -6.3141487692        0.1251322397        0.5674599979
 C         -5.4007598042        0.7741368808       -1.2795670204
 H         -6.3460875949        0.4009441285       -1.6790990797
 H         -5.4025431008        1.8574639337       -1.4039371511
 C         -4.2852707786        0.1668091686       -2.1324465275
 H         -4.2222522846       -0.9072673497       -1.9408794280
 H         -4.5532077109        0.2960028270       -3.1843788565
 C         -2.8911475372        0.7759848714       -1.9349465674
 H         -2.2423520652        0.3858545476       -2.7240359518
 H         -2.9492346528        1.8601558130       -2.0381041510
 H         -4.7808665644        1.1859238658        2.1342675401
 H         -5.5698587069        2.3742649227        1.0896485706
 H         -3.1191290693        2.7827496864        1.5122190736
 H         -3.5572084779        2.6979755034       -0.2064078535
 O         -1.8590167152        0.6825872823        1.6900447642
 C         -1.0309724554       -0.4256331129        1.7580431086
 O         -0.5794449513       -0.6629628873        2.8978627618
 O         -1.0148839908       -1.3097891840       -1.7519076559
 C          0.0787083550       -2.3886691552        0.6865162783
 C          1.3027401884       -2.2296085760       -0.1799559824
 C          1.6544217668       -3.1111612228       -1.1928938792
 C          2.7823105460       -2.8770148624       -1.9603490750
 C          3.5792069558       -1.7710263600       -1.7325961913
 C          3.2448276911       -0.8920941633       -0.7066974959
 C          2.1154811713       -1.1277189315        0.0598184400
 H          1.8626017947       -0.4508303103        0.8640708555
 N          4.0494228594        0.2204949156       -0.4406339454
 S          3.5890665221        1.4776752015        0.5334550163
 O          4.5731472435        2.5055135059        0.2623653982
 O          3.5025314699        1.0482649573        1.9075006757
 C          1.9994373737        2.0605680155       -0.0291398378
 C          1.6628622443        2.0029664891       -1.3662749357
 C          0.4668093918        2.5672831070       -1.7797065662
 C         -0.3591331392        3.1904928163       -0.8585074006
 C         -0.0113466793        3.2342161821        0.4819937555
 C          1.1763567854        2.6601866510        0.9026576781
 H          1.4789560392        2.6605078542        1.9382597458
 H         -0.6566007242        3.7125997594        1.2011219846
 H         -1.2778766086        3.6494020813       -1.1861150942
 H          0.1857116282        2.5217558160       -2.8193678146
 H          2.3225264008        1.5203707864       -2.0687178463
 H          4.7460965659        0.4599296031       -1.1280094161
 H          4.4552377694       -1.5864927559       -2.3348090591
 H          3.0414563010       -3.5641810820       -2.7512876772
 H          1.0417794759       -3.9747275467       -1.3903845683
 H          0.4109286589       -2.4468315786        1.7334222868
 C         -0.7447399855       -3.6185019735        0.3642598501
 C         -0.3493627937       -4.9535755420        0.9173156749
 C         -1.5602898250       -4.2498721001        1.4505154232
 H         -2.5361262228       -4.6405132489        1.2033743892
 H         -1.5051426932       -3.8058266974        2.4342098003
 H         -0.4960621603       -5.8309683070        0.3058449003
 H          0.5292427090       -4.9937738903        1.5433706843
 H         -1.1795442711       -3.5826542241       -0.6279388717
