  62
        -98.94380121
 C         -1.4584335684       -0.9320834426       -0.4467317435
 C         -2.5384433823       -1.0908173567        0.4591327074
 C         -3.4341749525        0.0581326688        0.6189154823
 C         -3.1785699630        1.1964164044       -0.0506920872
 C         -3.9726859338        2.4719288168        0.0339688958
 C         -5.2075103204        2.5043172701       -0.8770323894
 C         -6.3700961270        1.6179495109       -0.4282411828
 H         -6.6085430932        1.8348316069        0.6134601148
 H         -7.2379815255        1.9008418462       -1.0272289681
 C         -6.1210462411        0.1129011987       -0.5992039115
 H         -6.9970321540       -0.3514708352       -1.0575221510
 H         -5.2820770085       -0.0415882910       -1.2815166641
 C         -5.8411738469       -0.6355444305        0.7040313936
 H         -6.7242959340       -0.5976144894        1.3455631874
 H         -5.6444093532       -1.6830909399        0.4624699853
 C         -4.6403300705       -0.0998127798        1.4948434224
 H         -4.3910324218       -0.8237090165        2.2746691464
 H         -4.8931866650        0.8492602781        1.9677485808
 H         -5.5586602139        3.5382458151       -0.9115121339
 H         -4.9028375150        2.2229941089       -1.8877120015
 H         -4.2755272816        2.6445445924        1.0673976626
 H         -3.2977598044        3.2765631219       -0.2668720723
 O         -2.1226987283        1.3217782034       -0.8935555703
 C         -1.2370836058        0.2719380970       -1.1178140919
 O         -0.3356638008        0.5531464787       -1.9282786351
 O         -2.7437509807       -2.1550542681        1.1039895031
 C         -0.5290742294       -2.1229378032       -0.5949594591
 C          0.5515645097       -2.0963669753        0.4587950431
 C          0.9604546870       -3.2652079451        1.0910105728
 C          1.9521946140       -3.2306124945        2.0552186184
 C          2.5460261172       -2.0341848242        2.4128850287
 C          2.1313646404       -0.8552679263        1.8000475103
 C          1.1499435212       -0.8981165673        0.8203254161
 H          0.8276670216        0.0203403740        0.3586688779
 N          2.6758048138        0.3698866498        2.1922133598
 S          2.6604798658        1.7612461087        1.2753597232
 O          3.4726690127        2.6776753546        2.0488302316
 O          1.3076264595        2.1825203321        1.0133821543
 C          3.5344321611        1.3539778710       -0.2245190639
 C          2.8710582996        1.1940479080       -1.4228956013
 C          3.6110840024        0.8771587544       -2.5534125819
 C          4.9843356670        0.7180953318       -2.4674226025
 C          5.6350637085        0.8800623999       -1.2528674459
 C          4.9054674175        1.2026856429       -0.1218362385
 H          5.3741222284        1.3608570224        0.8358117488
 H          6.7041812257        0.7585556485       -1.1864709482
 H          5.5498576932        0.4690341146       -3.3514728787
 H          3.0984347845        0.7548584908       -3.4939707803
 H          1.7986636616        1.3049601667       -1.4729821341
 H          3.4556220180        0.3263152951        2.8292321012
 H          3.3097318451       -2.0046344707        3.1745238820
 H          2.2621315016       -4.1441126262        2.5393624489
 H          0.4808671569       -4.1997055910        0.8399352650
 H         -1.1606055796       -3.0021136498       -0.3862001524
 C          0.0315321051       -2.2883169057       -2.0002954728
 C          1.4555705130       -1.9944313591       -2.3527082608
 C          0.9740351488       -3.4117780086       -2.3174799515
 H          0.8478261460       -3.9389463671       -3.2508975267
 H          1.3090587411       -4.0313947428       -1.5003130346
 H          1.6475349452       -1.5314932636       -3.3077106208
 H          2.1128500651       -1.6542390391       -1.5672076325
 H         -0.7080862339       -2.0475457365       -2.7569709943
