  62
        -98.94062663
 C         -1.5800783595       -0.5167651690        0.7969873598
 C         -2.9367863096       -0.6333851284        1.1978362097
 C         -3.9281945794       -0.7217167192        0.1207068396
 C         -3.5243119792       -0.6755804604       -1.1612911303
 C         -4.4092966190       -0.7779846013       -2.3738335104
 C         -5.0552183387        0.5506977585       -2.7894100117
 C         -6.1747471588        1.0446894994       -1.8722553023
 H         -6.9045407889        0.2470588696       -1.7297710817
 H         -6.6803805986        1.8593274090       -2.3945814431
 C         -5.6949250190        1.5565547405       -0.5067787926
 H         -6.1855855688        2.5061304708       -0.2812194735
 H         -4.6211653689        1.7548971503       -0.5491490426
 C         -5.9792220293        0.6113254216        0.6606950281
 H         -7.0583691993        0.5124599918        0.7972677780
 H         -5.5640983694        1.0546676923        1.5694009378
 C         -5.3767255695       -0.7904874287        0.4999679594
 H         -5.9376649294       -1.3582822992       -0.2420861002
 H         -5.4456865497       -1.3047911678        1.4616593299
 H         -5.4694162486        0.4122578677       -3.7908424416
 H         -4.2747298786        1.3125719583       -2.8558963422
 H         -5.1863451491       -1.5226738710       -2.1985729999
 H         -3.7747291589       -1.1224409121       -3.1933589200
 O         -2.2178323691       -0.5450991609       -1.5081956602
 C         -1.2149890292       -0.4374819102       -0.5483463502
 O         -0.0786844691       -0.2918494508       -1.0323860801
 O         -3.3025738198       -0.6644838074        2.4027952097
 C         -0.5400991697       -0.3952774082        1.8972410599
 C          0.3013548006        0.8367293215        1.6842342290
 C         -0.2574952293        2.0791973218        1.9726506178
 C          0.4726975709        3.2399726616        1.8095904870
 C          1.7754700710        3.1817918310        1.3473029772
 C          2.3388756908        1.9499533706        1.0407324184
 C          1.6053590806        0.7835666509        1.2148066193
 H          2.0507534505       -0.1654114494        0.9654584202
 N          3.6695200809        1.8636649300        0.5806564787
 S          3.9172107511        1.2744504787       -0.9779830508
 O          5.2363079212        1.7642212682       -1.3298776709
 O          2.8491662513        1.6673512181       -1.8669281213
 C          4.0075112008       -0.4915505612       -0.7994016892
 C          5.0920777706       -1.0115443308       -0.1193518186
 C          5.2127938004       -2.3864662807       -0.0046567274
 C          4.2578278603       -3.2119991911       -0.5798824968
 C          3.1761562805       -2.6718971115       -1.2581274275
 C          3.0419093308       -1.2959219415       -1.3686871387
 H          2.1967721409       -0.8371256018       -1.8569573492
 H          2.4298226205       -3.3137442917       -1.6989887271
 H          4.3541137402       -4.2834808310       -0.4979345159
 H          6.0493102802       -2.8107884104        0.5268342831
 H          5.8187699906       -0.3327807905        0.2950142110
 H          4.1779037410        2.7329888300        0.6764071380
 H          2.3529146611        4.0852816308        1.2165382966
 H          0.0270921010        4.1957464918        2.0414308561
 H         -1.2777026093        2.1216231823        2.3296519576
 H         -1.1389554298       -0.2324343473        2.8089172097
 C          0.2835179001       -1.6482373781        2.1498511011
 C         -0.3652497601       -2.9991123081        2.1018164522
 C          0.6619116602       -2.6230955791        1.0785113120
 H          1.6369334601       -3.0841770592        1.1362229026
 H          0.3377335904       -2.4178884699        0.0712696018
 H         -0.1030665803       -3.7257692275        2.8557029129
 H         -1.4003446600       -3.0399993982        1.7945955020
 H          1.0125625200       -1.4915292775        2.9391698811
