  62
        -98.93801951
 C          0.7868541908        1.8002195921        0.5669486643
 C          0.9066344890        0.7598506448       -0.3839761404
 C          1.8963292361       -0.2931607033       -0.0854203030
 C          2.5431327532       -0.2822841130        1.0938901684
 C          3.5298657630       -1.2587783813        1.7002079106
 C          4.2102039585       -2.3179416182        0.8368839575
 C          5.1934686604       -1.7648707507       -0.1944500124
 H          5.5344632509       -2.5925327499       -0.8198518777
 H          6.0632931731       -1.3671321569        0.3344798838
 C          4.6509302849       -0.6541862185       -1.0901689803
 H          5.4547732732       -0.3460594089       -1.7641333757
 H          4.3932315533        0.2142688593       -0.4803263899
 C          3.4459296827       -1.0363358295       -1.9471969093
 H          3.6818768341       -1.9252837149       -2.5345769247
 H          3.2640467896       -0.2131961908       -2.6430395051
 C          2.1375829987       -1.2926882345       -1.1788455303
 H          2.0981135205       -2.3061280533       -0.7876885439
 H          1.3045658020       -1.1828153651       -1.8786777280
 H          3.4645902035       -2.9453090892        0.3577351581
 H          4.7735415755       -2.9597108129        1.5198454144
 H          4.2957517140       -0.6467127643        2.1878055811
 H          2.9827187386       -1.7639011791        2.5046858803
 O          2.3225895256        0.6935614091        2.0247365072
 C          1.4656004150        1.7513855108        1.7845496487
 O          1.3881574476        2.5707995688        2.7234835655
 H         -1.4510801344        0.8377026477        1.3414400665
 C         -2.0253904586        1.3068311976        0.5563478482
 C         -1.5223823857        2.4334480421       -0.0827723690
 C         -2.2850978529        3.0238482314       -1.0820910274
 C         -3.5136556533        2.4896820842       -1.4323355250
 C         -3.9932835983        1.3475811900       -0.8187992166
 C         -3.2307999962        0.7438645247        0.1770194460
 N         -3.6729069837       -0.4323743270        0.8077453257
 S         -2.6392430939       -1.6650683412        1.2302668056
 O         -3.5245115523       -2.7313659939        1.6546585459
 O         -1.6862997059       -1.2234380698        2.2205464030
 C         -1.7717462473       -2.2401826591       -0.2240797892
 C         -2.0174695157       -1.7543102407       -1.4907124860
 C         -1.3523014394       -2.3262516741       -2.5654869148
 C         -0.4691029551       -3.3729140530       -2.3618320698
 C         -0.2317238249       -3.8501685354       -1.0815247954
 C         -0.8858130414       -3.2775921137       -0.0040935364
 H         -0.7312252530       -3.6133588435        1.0094313034
 H          0.4563629117       -4.6649739881       -0.9207198382
 H          0.0422307673       -3.8151463950       -3.2022332725
 H         -1.5275959672       -1.9441626466       -3.5581838242
 H         -2.6965077456       -0.9322231014       -1.6432815005
 H         -4.5472388038       -0.8014925774        0.4628653191
 H         -4.9418533557        0.9201074322       -1.1072090028
 H         -4.0984708302        2.9608581555       -2.2075622616
 H         -1.9155605805        3.8936628879       -1.5993102732
 C         -0.1805500535        2.9545830566        0.3734330472
 H         -0.3181739323        3.3767315818        1.3836531675
 C          0.3589429559        4.0798424362       -0.4998304182
 C          1.8262144953        4.2194706232       -0.7736340597
 C          0.8934826296        3.8219917876       -1.8756940565
 H          0.6835411835        4.5428782289       -2.6522447077
 H          0.9059536125        2.7985681120       -2.2146534973
 H          2.4868824409        3.4685302009       -0.3644596097
 H          2.2506316641        5.2124482310       -0.7857875432
 H         -0.1844612226        5.0080318747       -0.3524969315
 O          0.2237742733        0.6932222948       -1.4383774082
