  62
        -98.94248262
 C         -1.9350723095       -1.4384806294        0.0613040790
 C         -1.7040233696       -0.0770693196        0.3744672097
 C         -2.8987303497        0.7177206501        0.7001163301
 C         -4.1074043996        0.1285120499        0.7031894599
 C         -5.4080136997        0.8391184596        0.9375395703
 C         -6.0083583399        1.3440624302       -0.3824786694
 C         -5.0201265900        2.1127092108       -1.2601884291
 H         -4.2377145899        1.4299680811       -1.5997916294
 H         -5.5637693601        2.4422286312       -2.1483281589
 C         -4.3726830401        3.3256942405       -0.5774334785
 H         -4.3907253003        4.1686116209       -1.2714800480
 H         -4.9574638101        3.6136602500        0.2969628317
 C         -2.9142025001        3.1178428005       -0.1653171086
 H         -2.3428063401        2.7444234311       -1.0191407489
 H         -2.4975141302        4.0909441905        0.1079364118
 C         -2.6892949299        2.1710877700        1.0201597709
 H         -3.3197892499        2.4749501194        1.8580238810
 H         -1.6431568099        2.2600226199        1.3275496309
 H         -6.3711014598        0.4833595805       -0.9494910698
 H         -6.8634863699        1.9815961900       -0.1507136190
 H         -6.1057280796        0.1383985193        1.3991276000
 H         -5.2440161198        1.6736477993        1.6165458607
 O         -4.2856749995       -1.1919705900        0.4413650192
 C         -3.2105242394       -2.0056066797        0.1218087287
 O         -3.5131620592       -3.1993133396       -0.0754330519
 O         -0.5680258697        0.4606732206        0.3842133799
 C         -0.7939218393       -2.3698454291       -0.3083815216
 C          0.3861016807       -2.1418110094        0.6056328585
 C          0.2074674108       -2.3061655901        1.9774548284
 C          1.2552594808       -2.1068598504        2.8540908985
 C          2.5049860707       -1.7436909000        2.3827086386
 C          2.6983041106       -1.5867093793        1.0154953487
 C          1.6424522306       -1.7934432190        0.1361432786
 H          1.8167845805       -1.6526624584       -0.9167861513
 N          3.9718720405       -1.2701308289        0.5189564488
 S          4.2732198603       -0.2240299582       -0.7459311607
 O          3.5490370003       -0.6409554277       -1.9194431509
 O          5.7159323003       -0.2172466279       -0.8587127208
 C          3.7277612301        1.3892211715       -0.2116221098
 C          4.6855813800        2.3397926115        0.0873155706
 C          4.2803843599        3.5943929612        0.5117652313
 C          2.9280567598        3.8761495209        0.6361970315
 C          1.9814074500        2.9088824810        0.3386080310
 C          2.3781232101        1.6516818712       -0.0907316296
 H          1.6447021802        0.8933727712       -0.3114416200
 H          0.9265794099        3.1099968708        0.4380410412
 H          2.6101334597        4.8527187407        0.9663599420
 H          5.0173166598        4.3464420512        0.7440997916
 H          5.7249281801        2.0772567517       -0.0268101796
 H          4.6814136806       -1.1658148691        1.2294103888
 H          3.3246244507       -1.5864397703        3.0673977186
 H          1.0993242408       -2.2315031510        3.9152391184
 H         -0.7713751192       -2.5832890905        2.3462338483
 H         -1.1770896592       -3.3856504892       -0.1132461521
 C         -0.4189634994       -2.3209746483       -1.7825272416
 C         -1.4260188895       -1.9697364479       -2.8354211913
 C         -0.3010317096       -1.0288603279       -2.5312102109
 H          0.5014532403       -0.9228613374       -3.2471477709
 H         -0.5240247197       -0.1202852582       -1.9944752104
 H         -1.4056777195       -2.5179534274       -3.7653258416
 H         -2.4210585495       -1.7022245082       -2.5095671312
 H          0.2918540107       -3.0986549680       -2.0464915120
