  62
        -98.94273702
 C          2.7020521738        1.2206372319        0.1662950171
 C          2.6155554448        0.2990014844       -0.9051692382
 C          3.6579206103       -0.7376818857       -0.9416908110
 C          4.6198520074       -0.7426625220       -0.0013883316
 C          5.6992721811       -1.7784341832        0.1163372393
 C          5.2617765191       -2.9311454737        1.0313504153
 C          3.8794790304       -3.4941592044        0.7001509127
 H          3.1246331672       -2.7301449676        0.9008674889
 H          3.6915359171       -4.3194962083        1.3902957137
 C          3.7252444955       -3.9906483616       -0.7442376324
 H          3.2164058063       -4.9567317142       -0.7296256909
 H          4.7086356602       -4.1493150939       -1.1883439137
 C          2.9042428053       -3.0686024120       -1.6476653909
 H          1.9538772410       -2.8306775304       -1.1628485315
 H          2.6756519714       -3.6109908057       -2.5689409131
 C          3.5821294639       -1.7521258693       -2.0478193538
 H          2.9764559179       -1.2924776742       -2.8343068821
 H          4.5748777237       -1.9564795782       -2.4536858280
 H          5.2449480195       -2.5676765631        2.0614577884
 H          6.0063103156       -3.7264704008        0.9640463530
 H          5.9416108087       -2.1583929929       -0.8741406751
 H          6.5860476826       -1.3053741765        0.5413777324
 O          4.6870541351        0.1784906684        0.9938213986
 C          3.7231849412        1.1642447580        1.1164938554
 O          3.8839336941        1.9217475797        2.0947109480
 H         -0.5877591309        1.9826093840       -1.2469394941
 C         -0.6973440329        1.5323610449       -0.2732437587
 C          0.3323467774        1.6203684533        0.6483934103
 C          0.1656869441        1.0194640497        1.8940590234
 C         -0.9996335946        0.3449582378        2.2019168975
 C         -2.0198363744        0.2427796730        1.2710889179
 C         -1.8643283476        0.8380576547        0.0272895707
 N         -2.8732593382        0.7119586424       -0.9362653840
 S         -4.4851738237        0.8122792146       -0.5100187091
 O         -5.1767928774        1.1409363281       -1.7372951569
 O         -4.6889410717        1.7149700556        0.5994303690
 C         -4.9113355339       -0.8492329499       -0.0304234348
 C         -4.5397086635       -1.8873617138       -0.8620436690
 C         -4.8791106807       -3.1831577601       -0.5071988816
 C         -5.5840167502       -3.4179309712        0.6639932719
 C         -5.9534181255       -2.3646527136        1.4862104964
 C         -5.6154481726       -1.0661549666        1.1377634430
 H         -5.8747721796       -0.2176257483        1.7507784346
 H         -6.5012696114       -2.5491253238        2.3963306308
 H         -5.8460543535       -4.4278468821        0.9375055599
 H         -4.5916900793       -4.0046907963       -1.1435864480
 H         -3.9913457319       -1.6661601388       -1.7626804083
 H         -2.6758623220        1.1654209369       -1.8152603714
 H         -2.9291902362       -0.2869100943        1.5033612206
 H         -1.1153875589       -0.1127338736        3.1727504425
 H          0.9699115326        1.0863418438        2.6144964725
 C          1.6462085504        2.2997090778        0.3465347152
 H          1.9456929620        2.8703073412        1.2362216366
 C          1.6044844978        3.2379484057       -0.8404885681
 C          0.9358893637        4.5718892293       -0.7033309979
 C          2.4284284846        4.4883497775       -0.8099210970
 H          2.8998166186        4.8170250017       -1.7240195222
 H          3.0171295578        4.6764697383        0.0761525069
 H          0.5082757737        4.8185709095        0.2569074130
 H          0.3819037273        4.9625760500       -1.5435749242
 H          1.5247099091        2.7224681142       -1.7898026431
 O          1.7205779934        0.3323187426       -1.7895443241
