  62
        -98.93453127
 C         -1.7634785288       -0.6047013203        0.9867232304
 C         -2.0720895285       -0.2190250205       -0.3391984997
 C         -3.4919409384       -0.3077564706       -0.7343477700
 C         -4.4079437886       -0.7311677906        0.1554903898
 C         -5.8974526085       -0.9672768907        0.0164151895
 C         -6.6784604183       -0.3675838510       -1.1503851407
 C         -6.7586390385        1.1584305490       -1.1520213410
 H         -7.2581982783        1.4721329289       -2.0712753611
 H         -7.3806460587        1.4756441491       -0.3110688111
 C         -5.4230506985        1.8896966892       -1.0386538508
 H         -5.6272142586        2.9636712791       -1.0646083709
 H         -4.9682633187        1.6744599793       -0.0693858606
 C         -4.4111153783        1.5826071091       -2.1412811905
 H         -3.5810519484        2.2854975992       -2.0291627904
 H         -4.8677968881        1.7569285189       -3.1174406406
 C         -3.8170736382        0.1629133292       -2.1223440202
 H         -4.4680480580       -0.5468688910       -2.6270674802
 H         -2.8696592980        0.1878334192       -2.6683719900
 H         -6.2815997781       -0.7271645410       -2.0951376806
 H         -7.6992393883       -0.7512496510       -1.0696000909
 H         -6.0265769885       -2.0552248108       -0.0050525704
 H         -6.3399334288       -0.6236987507        0.9568253894
 O         -4.0612101789       -1.0869928204        1.4279695399
 C         -2.7562542290       -1.0099170402        1.8797959402
 O         -2.6115402892       -1.3178592301        3.0798876803
 H          2.0745414013       -0.0776062401        0.2719894512
 C          1.5405116312        0.8275211599        0.5042939909
 C          0.3002699411        0.7729824899        1.1182775607
 C         -0.3634311291        1.9694931899        1.3812324404
 C          0.1897707109        3.1804168499        1.0169596703
 C          1.4341297310        3.2296461799        0.4118016506
 C          2.1120988012        2.0450648699        0.1608175709
 N          3.3781588913        2.0467725600       -0.4467953188
 S          4.5752973112        1.0676844001        0.1952756616
 O          4.4214914909        0.9120459103        1.6234939816
 O          5.8164942513        1.6668113302       -0.2480983582
 C          4.3782430816       -0.5039231900       -0.6168023783
 C          4.3988702715       -1.6607086199        0.1369871919
 C          4.2854372617       -2.8830885500       -0.5064180680
 C          4.1559224220       -2.9263811902       -1.8863374280
 C          4.1380879821       -1.7552232303       -2.6288082581
 C          4.2533102219       -0.5302370002       -1.9915760383
 H          4.2451680219        0.3993681798       -2.5356438384
 H          4.0340744924       -1.7939730304       -3.7011934182
 H          4.0653604522       -3.8787998302       -2.3847211279
 H          4.2963950017       -3.7945169699        0.0702172822
 H          4.4929521512       -1.5797182397        1.2084246219
 H          3.7355428713        2.9625124800       -0.6776713689
 H          1.8722390910        4.1763636399        0.1334338606
 H         -0.3457652092        4.0972491499        1.2141603901
 H         -1.3311744892        1.9342318099        1.8643695202
 C         -0.3490254789       -0.5251621601        1.5330545807
 H         -0.4699431192       -0.4973449700        2.6295879507
 C          0.5057683812       -1.7457371301        1.2224991910
 C         -0.1157981586       -3.0820606301        0.9499972711
 C          0.5717151216       -2.3371969002       -0.1525741889
 H          1.5234619017       -2.7054493802       -0.5066490286
 H         -0.0313174783       -1.8754143404       -0.9177189691
 H         -1.1945900286       -3.1404670002        0.9376982908
 H          0.3629462114       -3.9593165301        1.3583501813
 H          1.4235005411       -1.7549242999        1.8037122612
 O         -1.2154673484        0.1779542195       -1.1697040696
