  62
        -98.93894183
 C         -2.1787303500       -1.0362187099        0.4668965408
 C         -2.3337533601       -0.2369037498       -0.6892910391
 C         -3.1360027400        0.9910250802       -0.5319522389
 C         -3.6253414399        1.3029476301        0.6805887511
 C         -4.5006624199        2.4697466501        1.0468985413
 C         -5.9869056099        2.0787527701        0.9785992113
 C         -6.6346456300        2.2460318402       -0.3952214986
 H         -7.6382575400        1.8190423402       -0.3351132786
 H         -6.7436804800        3.3104925302       -0.6129641185
 C         -5.8870420201        1.5836245303       -1.5552384887
 H         -5.5440284201        0.5922997103       -1.2537136388
 H         -6.5947625601        1.4456678604       -2.3748168187
 C         -4.6982926101        2.4149641103       -2.0605215187
 H         -4.7736328402        2.5347082104       -3.1432672487
 H         -4.7555452501        3.4165594503       -1.6348868987
 C         -3.3140580201        1.8130042403       -1.7793019889
 H         -2.5669499601        2.6145326003       -1.7762880089
 H         -3.0370461002        1.1384591904       -2.5958186389
 H         -6.0745658299        1.0388383201        1.3033434913
 H         -6.5425928999        2.6914490801        1.6912686014
 H         -4.2559803698        2.7287995800        2.0792926013
 H         -4.2881429899        3.3253185101        0.4127565713
 O         -3.4113620499        0.5262308300        1.7794071510
 C         -2.6910634499       -0.6516188200        1.7046078009
 O         -2.5686441298       -1.2523838401        2.7922306108
 O         -1.8357749101       -0.5340212697       -1.8064734891
 C         -1.3825372800       -2.3279640199        0.3992078207
 C          0.0424087300       -2.0206971599        0.0050724206
 C          0.7121555999       -2.6566454998       -1.0309318795
 C          2.0125808199       -2.3000507298       -1.3456981395
 C          2.6740100399       -1.3168788699       -0.6335184395
 C          2.0157061500       -0.6797395399        0.4107088706
 C          0.7138192400       -1.0376309099        0.7223587606
 H          0.1987485101       -0.5369740100        1.5342058307
 N          2.6843974601        0.3081367200        1.1568607106
 S          3.4191924500        1.5649381201        0.3177481907
 O          3.4748601101        2.6629420000        1.2590379907
 O          2.7555582200        1.8289158702       -0.9380271893
 C          5.0711671900        0.9668897101        0.0279111305
 C          5.8111603801        0.5463738300        1.1157735704
 C          7.1005016701        0.0829320800        0.9087357003
 C          7.6264782300        0.0518445401       -0.3743713797
 C          6.8722275199        0.4817395901       -1.4553363797
 C          5.5807792799        0.9447199501       -1.2554731395
 H          4.9541371799        1.2821679102       -2.0657219995
 H          7.2826350098        0.4573145602       -2.4520013997
 H          8.6303427700       -0.3093271399       -0.5328225498
 H          7.6898953001       -0.2520663901        1.7469813602
 H          5.3663170401        0.5905370699        2.0958344405
 H          2.1347547401        0.6733632599        1.9215736907
 H          3.6841384999       -1.0335507799       -0.8802842396
 H          2.5184536998       -2.7960778497       -2.1598705496
 H          0.2130595598       -3.4225360198       -1.6010092295
 H         -1.3711290499       -2.7293752700        1.4232343107
 C         -2.0682938001       -3.3261783598       -0.5089380393
 C         -1.8781018801       -4.7961549698       -0.2906510095
 C         -3.1895189501       -4.1525235098        0.0428635507
 H         -4.0412384901       -4.3539277698       -0.5893415593
 H         -3.4430948100       -4.0122395699        1.0839056107
 H         -1.8321496301       -5.4438553198       -1.1529254995
 H         -1.2424600500       -5.1019080599        0.5264273105
 H         -2.1672874301       -2.9650459797       -1.5258507793
