  62
        -98.94287326
 C         -0.7701459591       -1.4088463000       -0.1132051516
 C         -1.5077458594       -0.7947719712        0.9319523089
 C         -2.5439819600        0.1596374085        0.5275385596
 C         -2.6907805202        0.4631886894       -0.7740575402
 C         -3.7106806707        1.4057235492       -1.3546967095
 C         -5.0795042703        0.7552007286       -1.5993312699
 C         -5.8979316602        0.4756718672       -0.3377360001
 H         -5.9593083307        1.3839691368        0.2623823305
 H         -6.9112206000        0.2309826069       -0.6624793703
 C         -5.3646849395       -0.6780145831        0.5234549890
 H         -6.1939603491       -1.3265313038        0.8150557185
 H         -4.6770102092       -1.2865200923       -0.0686312214
 C         -4.6585228298       -0.2409128336        1.8072545693
 H         -5.3730681600        0.2571413555        2.4661105797
 H         -4.2962117992       -1.1364319038        2.3181198487
 C         -3.4619664303        0.6941231072        1.5846584600
 H         -3.8108125209        1.6915723872        1.3199104807
 H         -2.8939228903        0.7519641169        2.5156627500
 H         -4.9311166398       -0.1749302609       -2.1529647406
 H         -5.6535176107        1.4319754688       -2.2366122794
 H         -3.8378698712        2.2691273287       -0.7010366889
 H         -3.3128902409        1.7466877402       -2.3131363492
 O         -1.8930039399       -0.0638244494       -1.7387677306
 C         -0.9370211893       -1.0361478391       -1.4479959113
 O         -0.3439003891       -1.4601097180       -2.4555405116
 H          1.6346269604       -0.4883784381       -0.8774164209
 C          2.1180955506       -0.8617356884        0.0134246688
 C          1.5298343312       -1.8828853793        0.7460189881
 C          2.1786601914       -2.3532511698        1.8825729277
 C          3.3975585912       -1.8253638794        2.2673454781
 C          3.9817642006       -0.8070372685        1.5365633588
 C          3.3343001003       -0.3202248580        0.4062141292
 N          3.8975652497        0.7226012528       -0.3424627900
 S          2.9121200790        1.8556492928       -1.0664547592
 O          2.3757723993        1.3485741034       -2.3033003596
 O          3.7563612984        3.0271486534       -1.1894426384
 C          1.5950316888        2.2081749712        0.0855721811
 C          1.8701040688        2.3137804504        1.4346685111
 C          0.8464776186        2.6556083192        2.3032039114
 C         -0.4225848316        2.9120551988        1.8097594916
 C         -0.6790662715        2.8175355596        0.4517357515
 C          0.3345586087        2.4513527809       -0.4187194088
 H          0.1692098987        2.3416836415       -1.4795351388
 H         -1.6619579916        3.0276247094        0.0641835817
 H         -1.2167927417        3.1876996679        2.4850367418
 H          1.0428480686        2.7257816685        3.3607999914
 H          2.8680132289        2.1289901207        1.7968708210
 H          4.7290305994        1.1383704330        0.0511607203
 H          4.9302602603       -0.3877590382        1.8351739291
 H          3.8933459514       -2.2020232897        3.1486260978
 H          1.7137928619       -3.1300610805        2.4711027072
 C          0.2156139915       -2.4809781597        0.3145192076
 H         -0.2360279082       -2.9382221607        1.2106718273
 C          0.3966085821       -3.5903498389       -0.7116519332
 C          1.5957914422       -3.7012996376       -1.5991817733
 C          1.3992690728       -4.6833284585       -0.4857635940
 H          1.1205112233       -5.6961288685       -0.7341326847
 H          2.0492104127       -4.5989351587        0.3715861561
 H          1.4356311324       -4.0196844769       -2.6179019935
 H          2.3710707218       -2.9570324872       -1.5012098327
 H         -0.5500732677       -3.8849463591       -1.1535010034
 O         -1.3212356293       -1.0581596520        2.1491823887
