  62
        -98.93895029
 C         -1.9207214903        0.6437253341        0.5593299945
 C         -2.7855505342        0.9756268472       -0.5166316602
 C         -3.8684058661        0.0297866186       -0.8097509679
 C         -3.9641109470       -1.0967960162       -0.0812045899
 C         -5.0390037044       -2.1325322045       -0.2387893121
 C         -6.2362698479       -1.8359954999        0.6750523190
 C         -6.7366219819       -0.3940656672        0.5889453600
 H         -7.6002289497       -0.3095753180        1.2521463401
 H         -5.9649892448        0.2736123529        0.9789441670
 C         -7.1300620168        0.0582257097       -0.8242503585
 H         -7.2818549417       -0.8125951169       -1.4629533572
 H         -8.0822335958        0.5900429383       -0.7692415461
 C         -6.1282775994        1.0047628382       -1.4881910928
 H         -5.9006995952        1.8312179819       -0.8103749662
 H         -6.6009055035        1.4309197216       -2.3770679753
 C         -4.8052365921        0.3698905337       -1.9346320890
 H         -5.0081461491       -0.5121997607       -2.5456079113
 H         -4.2761556247        1.1017482508       -2.5519570651
 H         -5.9401771746       -2.0349923145        1.7077027883
 H         -7.0458857258       -2.5207256622        0.4158660174
 H         -4.6208168687       -3.1046652361        0.0282119665
 H         -5.3594999399       -2.1590628195       -1.2786293639
 O         -3.1063640554       -1.3971396180        0.9245370149
 C         -2.0643055514       -0.5417125445        1.2815087595
 O         -1.3886473040       -0.9640060601        2.2358080775
 O         -2.6552527862        2.0286472824       -1.1969807970
 C         -0.8035390224        1.6374515737        0.8277680941
 C          0.3219301232        1.4231143543       -0.1535233924
 C          0.8449533876        2.4946557407       -0.8693220866
 C          1.8582188548        2.3042151619       -1.7913244399
 C          2.3839483282        1.0419848112       -1.9981849685
 C          1.8724544444       -0.0352670088       -1.2841522205
 C          0.8404250704        0.1543027735       -0.3765073448
 H          0.4454538512       -0.6963407069        0.1595275713
 N          2.4056682629       -1.3345504221       -1.4498807175
 S          3.3350681018       -1.8912174471       -0.1700273069
 O          3.8628865605       -3.1670942524       -0.5994315076
 O          2.5528132674       -1.8789880169        1.0366726960
 C          4.6605801386       -0.6999669154       -0.0577877277
 C          4.4415170614        0.4788770126        0.6271486104
 C          5.4429441472        1.4369880130        0.6466711838
 C          6.6375639727        1.2023647993       -0.0168829906
 C          6.8426188573        0.0128095536       -0.6995245690
 C          5.8435790024       -0.9470550556       -0.7268127273
 H          5.9594662758       -1.8877780527       -1.2405969852
 H          7.7737682941       -0.1684614125       -1.2117451444
 H          7.4137695316        1.9509793394        0.0004965435
 H          5.2834870372        2.3610625210        1.1784429104
 H          3.5029532492        0.6232541344        1.1376924446
 H          2.9345350034       -1.4423195847       -2.3053759079
 H          3.1780528354        0.8853872515       -2.7129589235
 H          2.2448560496        3.1437913581       -2.3478117139
 H          0.4327322158        3.4803726580       -0.7128786723
 H         -1.2405374460        2.6237788165        0.5992792612
 C         -0.3270343121        1.6909223314        2.2699312266
 C          0.8681164793        0.9503766491        2.7802928766
 C          0.9276134840        2.4380211615        2.6185629512
 H          0.9334053991        3.0517950842        3.5064759238
 H          1.5138170598        2.8319193819        1.8016598034
 H          0.8035218216        0.5344321256        3.7744414141
 H          1.4115361041        0.3132331453        2.0998333741
 H         -1.1592545709        1.7805096889        2.9611304058
