  62
        -98.94450920
 C         -1.7321736942       -0.7681535103        0.1171187902
 C         -2.9457304567       -1.1787699499        0.7199401645
 C         -4.1668402554       -0.8942550226       -0.0412046506
 C         -4.0793915262       -0.2932613378       -1.2418763731
 C         -5.2330992900        0.0463279268       -2.1464172107
 C         -5.9229875722        1.3746781986       -1.8064681275
 C         -6.7759557143        1.3594737126       -0.5372578655
 H         -7.3676487694        2.2770738058       -0.5384838316
 H         -7.4735396563        0.5224506740       -0.5797746305
 C         -5.9691523676        1.2944952398        0.7671009762
 H         -4.9313457140        1.5716565854        0.5668839324
 H         -6.3637984152        2.0256826587        1.4762547765
 C         -5.9938766131       -0.0680712893        1.4598210438
 H         -5.3634712752       -0.0113512278        2.3508804627
 H         -7.0120530594       -0.2964891436        1.7823043944
 C         -5.4843853719       -1.2263276257        0.5920634977
 H         -6.2211401910       -1.4776946564       -0.1703681861
 H         -5.3338602197       -2.0964283037        1.2356568762
 H         -5.1603796842        2.1528221283       -1.7243622643
 H         -6.5689232297        1.6310206460       -2.6494203305
 H         -5.9655031990       -0.7611737807       -2.1260680369
 H         -4.8240537452        0.1201046234       -3.1563826925
 O         -2.8913931302        0.0679255940       -1.7967099430
 C         -1.6925365846       -0.1393462528       -1.1270505261
 O         -0.6870708514        0.2651632728       -1.7412051439
 O         -3.0044357337       -1.7528978995        1.8400576729
 C         -0.4314163283       -1.0055974788        0.8626130456
 C          0.2366676923        0.3114699647        1.1712021532
 C         -0.4965961046        1.2929195177        1.8348903096
 C          0.0745673867        2.5091774926        2.1516562096
 C          1.3899948466        2.7750199118        1.8116161422
 C          2.1330930175        1.8029813922        1.1548113113
 C          1.5570246922        0.5773895203        0.8454246373
 H          2.1498981985       -0.1618533121        0.3351783990
 N          3.4828945772        2.0242517500        0.8408241345
 S          4.0902764053        1.5680067601       -0.6536293234
 O          5.3197090778        2.3247833140       -0.7758575913
 O          3.1258137922        1.7547219561       -1.7108478850
 C          4.5040774088       -0.1534032254       -0.4721042158
 C          4.0693743178       -1.0589108944       -1.4193937478
 C          4.4359545465       -2.3897708661       -1.2910112836
 C          5.2261379870       -2.7883397905       -0.2231777838
 C          5.6525786592       -1.8657299233        0.7204009746
 C          5.2933705627       -0.5333528877        0.5956462868
 H          5.6099107085        0.2142427174        1.3033262182
 H          6.2636244113       -2.1814020563        1.5504380567
 H          5.5075405991       -3.8251703609       -0.1259196876
 H          4.1014579882       -3.1080581497       -2.0229241399
 H          3.4441064099       -0.7063832350       -2.2251276427
 H          3.8295786364        2.9355357311        1.1048904991
 H          1.8373636355        3.7273088836        2.0536133616
 H         -0.5078479435        3.2603933973        2.6638620739
 H         -1.5250049578        1.0858779101        2.0984390081
 H         -0.7296034789       -1.4636517766        1.8179134258
 C          0.4548546003       -1.9789271767        0.1160210789
 C          1.4357044203       -2.8232294229        0.8720622942
 C          0.2116382692       -3.4486893111        0.2757599196
 H          0.3238743396       -4.0853191533       -0.5888009631
 H         -0.5868810347       -3.7494948695        0.9381628183
 H          2.3933111262       -3.0313840151        0.4198482809
 H          1.4704716674       -2.7025864441        1.9440953632
 H          0.7332628932       -1.6211796207       -0.8692960713
