  62
        -98.93765459
 C         -1.2259277279       -1.4153001082        0.5974217071
 C         -2.0622574488       -1.1095432232       -0.5021919805
 C         -3.1918101918       -0.1978675921       -0.2326804285
 C         -3.3291489427        0.3347605511        0.9929475276
 C         -4.3590520324        1.3288085120        1.4538304534
 C         -3.8244315338        2.7647122462        1.3155143056
 C         -4.0674928250        3.4137376424       -0.0461656941
 H         -5.1326534452        3.6285822844       -0.1577581674
 H         -3.5361153092        4.3683560318       -0.0488464159
 C         -3.6028346865        2.5925232826       -1.2517024775
 H         -3.4796669936        3.2763393575       -2.0941444551
 H         -2.6199805860        2.1626212155       -1.0448136897
 C         -4.5944043100        1.4881040132       -1.6477073061
 H         -5.5384216666        1.6559886866       -1.1293062186
 H         -4.8096825517        1.5636473172       -2.7156354437
 C         -4.1132475828        0.0522256816       -1.3953160641
 H         -4.9855601370       -0.6027384358       -1.2951458505
 H         -3.5548571630       -0.3003555653       -2.2684370545
 H         -4.2945605823        3.3900220295        2.0775074230
 H         -2.7506870070        2.7473948450        1.5233586877
 H         -5.2903665815        1.2014571681        0.9099894365
 H         -4.5374509785        1.1247214685        2.5117874229
 O         -2.4621584779        0.0655828932        2.0081027876
 C         -1.3883397214       -0.7862726670        1.8332273004
 O         -0.6537506800       -0.8985425064        2.8362508441
 O         -1.8841189914       -1.5633302067       -1.6622778073
 C         -0.0064479144       -2.3084398953        0.4481146635
 C          0.8173544314       -1.8466688843       -0.7300869828
 C          1.3445107011       -2.6873464028       -1.7008278534
 C          2.1148125147       -2.1675341090       -2.7276185225
 C          2.3935738999       -0.8147894910       -2.7986582862
 C          1.8669273432        0.0351516866       -1.8322210626
 C          1.0877711070       -0.4872595705       -0.8150333919
 H          0.6560558859        0.1834011095       -0.0878392049
 N          2.1131887567        1.4160305204       -1.8571966269
 S          2.2438221722        2.2551777050       -0.4188055672
 O          0.9433967575        2.4644974283        0.1682072511
 O          2.9727160095        3.4548142439       -0.7732241282
 C          3.2588154986        1.2219537624        0.6239306137
 C          2.7334167302        0.6078519055        1.7419858559
 C          3.5483969071       -0.2240840558        2.4943419968
 C          4.8672126317       -0.4257264915        2.1196161687
 C          5.3840935089        0.2064845249        0.9985541155
 C          4.5737695035        1.0357609348        0.2416170929
 H          4.9418619089        1.5526652100       -0.6296103070
 H          6.4117980979        0.0524161030        0.7120939235
 H          5.4945878331       -1.0772280512        2.7071175284
 H          3.1378756788       -0.7126088205        3.3639361009
 H          1.7019198569        0.7748606945        2.0127049468
 H          2.7819429751        1.7253538540       -2.5463690373
 H          2.9976786865       -0.4158587748       -3.5987561489
 H          2.5100234289       -2.8292907944       -3.4832649108
 H          1.1363709802       -3.7440093061       -1.6685809795
 H          0.5921279601       -2.1096989149        1.3537135064
 C         -0.2983873758       -3.8016171542        0.4486642275
 C         -1.5769002304       -4.3432581587        1.0139295921
 C         -1.3143016075       -4.4260316215       -0.4582940173
 H         -1.0932595740       -5.3944570602       -0.8831510384
 H         -1.8608074478       -3.7708295166       -1.1170128827
 H         -1.5354768892       -5.2494328760        1.5997783366
 H         -2.3113454349       -3.6308475172        1.3620715039
 H          0.5940244290       -4.3860439656        0.6504576258
