  62
        -98.93541652
 C          2.3736398259        1.3912008276       -0.0332231252
 C          3.1979051837        0.8040196676        0.9597331201
 C          4.1699657011       -0.2116590311        0.5199074586
 C          4.2180661041       -0.5527986609       -0.7809615947
 C          5.1192810075       -1.5085779222       -1.5348609414
 C          6.0298545459       -2.4762547237       -0.7845547572
 C          5.2969886677       -3.5962931066       -0.0458433554
 H          4.8831344479       -4.2857832536       -0.7861177758
 H          6.0255685731       -4.1482587702        0.5516672081
 C          4.1487672250       -3.1515518267        0.8568347602
 H          3.6963180369       -4.0482144487        1.2894420979
 H          3.3767051529       -2.6631232100        0.2580082201
 C          4.5415827269       -2.2289662582        2.0086285700
 H          5.3254348004       -2.6997728457        2.6052080645
 H          3.6620260605       -2.1072852060        2.6468995077
 C          5.0154005257       -0.8248316364        1.5992031407
 H          4.9192528423       -0.1699257634        2.4701604989
 H          6.0634793495       -0.8317395282        1.3097261494
 H          6.6801125734       -1.9304707670       -0.1073448375
 H          6.6741677478       -2.9433749159       -1.5342650952
 H          5.7401147187       -0.8781052053       -2.1810141488
 H          4.4626674555       -2.0772528992       -2.2014119148
 O          3.3894408477        0.0224268511       -1.6996468807
 C          2.4544063574        0.9921653531       -1.3659491699
 O          1.7862808689        1.3891105425       -2.3397552097
 O          3.1385793292        1.1341504624        2.1744752567
 C          1.4120129437        2.4723868441        0.4297695293
 C          0.0382416128        1.9122764597        0.6950969908
 C         -0.5853664723        2.0965283645        1.9233407808
 C         -1.8445552397        1.5721401592        2.1590091894
 C         -2.5083369794        0.8603646790        1.1759466408
 C         -1.8898995090        0.6622378213       -0.0518241238
 C         -0.6260043680        1.1853448690       -0.2837959451
 H         -0.1479635643        1.0285699551       -1.2399560148
 N         -2.5585594267       -0.0482137314       -1.0648771432
 S         -3.2035054003       -1.5494707282       -0.6768011463
 O         -2.4685780160       -2.1797110056        0.3962257345
 O         -3.2654872088       -2.2740293580       -1.9273383846
 C         -4.8597805592       -1.1676746429       -0.1451463815
 C         -5.6691501762       -0.4524193019       -1.0060840884
 C         -6.9611369541       -0.1457902813       -0.6101117443
 C         -7.4205224810       -0.5599921914        0.6314319096
 C         -6.5972906043       -1.2816496751        1.4821417965
 C         -5.3030849659       -1.5906239487        1.0926233364
 H         -4.6249131150       -2.1436244759        1.7230232938
 H         -6.9563367749       -1.6036809039        2.4464104981
 H         -8.4262426509       -0.3190391875        0.9375976275
 H         -7.6041346441        0.4150064803       -1.2692034559
 H         -5.2742952452       -0.1525449013       -1.9624453708
 H         -2.0337875248       -0.0983029739       -1.9268433385
 H         -3.4895783896        0.4513935676        1.3527392561
 H         -2.3161128840        1.7210715181        3.1182706513
 H         -0.0693289282        2.6412385566        2.7003472406
 H          1.8221157679        2.8058878161        1.3961112720
 C          1.3958648151        3.6828125189       -0.4954396568
 C          0.2200147463        4.0843451390       -1.3298042598
 C          0.5916036323        4.8945105093       -0.1266614092
 H          1.0289014228        5.8707928006       -0.2699833566
 H         -0.0470036971        4.8167048627        0.7403641770
 H          0.4211940472        4.4842047537       -2.3120562609
 H         -0.6736248506        3.4826386553       -1.2825057161
 H          2.3727350608        3.8635620720       -0.9333503284
