  62
        -98.94305657
 C         -1.7950372614       -1.3718746243       -0.0606069226
 C         -3.1156802920       -1.2016783501        0.4348397867
 C         -3.8944483023       -0.1034068442       -0.1465233073
 C         -3.3361752098        0.6867827314       -1.0806402372
 C         -3.9982308929        1.8469222781       -1.7730463986
 C         -3.9501884749        3.1588409701       -0.9776288342
 C         -4.8743768616        3.2164227628        0.2393372491
 H         -4.9070788462        4.2571769731        0.5676919885
 H         -5.8856945328        2.9386864804       -0.0595566395
 C         -4.4247025425        2.3416565257        1.4180687036
 H         -4.4963259644        2.9149534720        2.3450645742
 H         -3.3742632305        2.0697225959        1.2909851261
 C         -5.2454914983        1.0665121164        1.6109699752
 H         -4.8178952743        0.5062730245        2.4463838935
 H         -6.2734280063        1.3274696001        1.8725745803
 C         -5.2735447535        0.1420438812        0.3868356896
 H         -5.6886681539       -0.8209337966        0.6947182309
 H         -5.9113066344        0.5646547741       -0.3895241123
 H         -4.2336111615        3.9632908475       -1.6602305034
 H         -2.9207394025        3.3388544437       -0.6600636742
 H         -3.4639045300        1.9944710220       -2.7141658994
 H         -5.0348676350        1.5953267381       -1.9993585064
 O         -2.0686163126        0.4980421790       -1.5271069759
 C         -1.2630803584       -0.5242330920       -1.0344947956
 O         -0.1340348110       -0.5512224346       -1.5569278490
 H          1.4564601158       -2.4763342889       -0.6932535882
 C          1.4895676852       -1.9558657252        0.2508878310
 C          0.3510036722       -1.8869606933        1.0371138146
 C          0.4097370410       -1.1872157143        2.2386395321
 C          1.5827910392       -0.5780439966        2.6445410677
 C          2.7125118586       -0.6285792023        1.8464148386
 C          2.6548636556       -1.3066421250        0.6358765876
 N          3.7747129397       -1.3163021591       -0.2115167227
 S          4.6755838749        0.0840458886       -0.3479487730
 O          5.2485789677        0.0388573218       -1.6760688524
 O          5.6311019263        0.1410256637        0.7331124737
 C          3.5546368861        1.4697411022       -0.2068345945
 C          3.9544248818        2.5565510638        0.5463639851
 C          3.1164347632        3.6551720853        0.6437440004
 C          1.8928366828        3.6486764732       -0.0083405232
 C          1.5066646962        2.5501271852       -0.7594250010
 C          2.3430724993        1.4500299949       -0.8677655544
 H          2.0288276284        0.5893226815       -1.4363686637
 H          0.5521143761        2.5264276848       -1.2619547219
 H          1.2363677076        4.5011345917        0.0702543551
 H          3.4170458315        4.5093248467        1.2289577744
 H          4.9085870728        2.5145861110        1.0465377587
 H          3.5895615230       -1.7166686893       -1.1197173941
 H          3.6326608579       -0.1496552005        2.1407717427
 H          1.6173012466       -0.0480076277        3.5840678147
 H         -0.4802890271       -1.1192565257        2.8486827518
 C         -0.9581229851       -2.4706588025        0.5744626541
 H         -1.5355385639       -2.7708529536        1.4633713143
 C         -0.7845664078       -3.7240457479       -0.2698828703
 C         -1.9411072394       -4.2780851965       -1.0458795021
 C         -0.7545287266       -3.7169655251       -1.7675936013
 H         -0.0864081603       -4.4056661353       -2.2647479693
 H         -0.8595085340       -2.7716544123       -2.2758010539
 H         -2.0952040062       -5.3464974351       -1.0551310004
 H         -2.8559913798       -3.7034868260       -1.0469897001
 H         -0.1413750014       -4.4484667964        0.2213257958
 O         -3.6206720681       -1.9372323067        1.3234773393
