  62
        -98.93877547
 C         -1.8215031305       -0.6967341886        0.3405149154
 C         -2.1060238797        0.6293322036       -0.0777820191
 C         -3.4603717405        0.8817164153       -0.5856688246
 C         -4.3418753386       -0.1334473991       -0.6309773509
 C         -5.7701783070       -0.0128897640       -1.0757840328
 C         -6.6968388367        0.2982210316        0.1077936345
 C         -6.2124572633        1.4536712401        0.9835588936
 H         -6.9583330018        1.6033159173        1.7671230249
 H         -5.2822727112        1.1615557106        1.4762146075
 C         -5.9915557758        2.7721792576        0.2290925112
 H         -6.4282595908        3.5865996638        0.8109385442
 H         -6.5123050822        2.7432312933       -0.7286964006
 C         -4.5225607888        3.1301836570       -0.0045810074
 H         -4.4749956289        4.1683193191       -0.3443702640
 H         -3.9754894632        3.0701309298        0.9396296241
 C         -3.7840603094        2.2762131484       -1.0432128306
 H         -4.3559217420        2.2524364430       -1.9734143943
 H         -2.8215548833        2.7558403090       -1.2454086138
 H         -7.6902568665        0.5264088804       -0.2825728038
 H         -6.7732565246       -0.5954408748        0.7313673231
 H         -6.0721141486       -0.9615987196       -1.5226912947
 H         -5.8455379222        0.7714180428       -1.8265687207
 O         -4.0376061398       -1.3896003737       -0.2242457848
 C         -2.7781455904       -1.7109616448        0.2726891014
 O         -2.6672572639       -2.9042539425        0.6049243167
 O         -1.2626145911        1.5651284773       -0.0172254016
 C         -0.4213997596       -0.9545199657        0.8680858193
 C          0.4915399257       -1.4617647583       -0.2196278897
 C          0.1409905500       -2.5462832397       -1.0180777971
 C          1.0022976848       -2.9962004411       -2.0019414831
 C          2.2192702896       -2.3727985256       -2.2146403709
 C          2.5785035716       -1.2857336261       -1.4263741158
 C          1.7159383478       -0.8443400247       -0.4318556443
 H          1.9917638734        0.0087932949        0.1675571686
 N          3.8191896093       -0.6586100337       -1.5981557901
 S          3.9887228109        0.9969591046       -1.4072683092
 O          2.8144668853        1.7103288549       -1.8490917364
 O          5.2222422360        1.3048181947       -2.0995171435
 C          4.2430301068        1.2041104512        0.3419899759
 C          5.2955911736        0.5290605011        0.9286069068
 C          5.5102545807        0.6770184024        2.2892686721
 C          4.6743922039        1.4943584996        3.0355952476
 C          3.6247682197        2.1686661294        2.4307871290
 C          3.4045741442        2.0251853251        1.0694886083
 H          2.5917620647        2.5236108341        0.5630363214
 H          2.9728596577        2.8022516972        3.0108649049
 H          4.8398049777        1.6069030711        4.0954531867
 H          6.3249206228        0.1545254881        2.7641091263
 H          5.9240037841       -0.0922744628        0.3127834736
 H          4.3673139767       -1.0054440332       -2.3716832925
 H          2.8870526054       -2.7232410991       -2.9870067486
 H          0.7202685185       -3.8396741468       -2.6141925712
 H         -0.8080228468       -3.0340480006       -0.8558886305
 H         -0.0516799149        0.0410019472        1.1622080799
 C         -0.3975813453       -1.8282982338        2.1153500380
 C          0.1379953509       -3.2249735154        2.1433667759
 C          0.9071365096       -2.1188617715        2.7969965411
 H          0.9484616529       -2.0797466965        3.8747324664
 H          1.8068611191       -1.7796805478        2.3052708864
 H         -0.3766761080       -3.9422938607        2.7640684558
 H          0.5229223355       -3.6432901449        1.2272717968
 H         -1.2496490059       -1.6310602210        2.7583005779
