  62
        -98.93410104
 C         -2.3631716538       -0.8875033813        0.1080339528
 C         -3.6047733754       -0.8205248465        0.7872424589
 C         -4.6750355505       -0.0137412775        0.1697737984
 C         -4.4103071782        0.6357988587       -0.9786033771
 C         -5.3159985494        1.5416487282       -1.7699316446
 C         -5.4730429029        2.9300961502       -1.1297282639
 C         -5.6961796767        2.9198889741        0.3801641082
 H         -4.8590791518        2.4121058261        0.8627028124
 H         -5.6868229736        3.9576271821        0.7237958067
 C         -7.0077401005        2.2878158101        0.8401284421
 H         -7.8429493668        2.8187522852        0.3779399549
 H         -7.0775874768        2.4364598138        1.9207624788
 C         -7.1655652408        0.7922223951        0.5571348192
 H         -8.0111848896        0.4360750137        1.1528176015
 H         -7.4250731814        0.6135740976       -0.4829546429
 C         -5.9646527395       -0.0607701274        0.9534777918
 H         -5.6952845954        0.1586347634        1.9929548812
 H         -6.2704914767       -1.1142310771        0.9535315274
 H         -4.5605153768        3.4978119122       -1.3272641614
 H         -6.3024075924        3.4432669749       -1.6194288627
 H         -6.2835375873        1.0696875796       -1.9133206558
 H         -4.8558329623        1.6627011509       -2.7531403078
 O         -3.1887539144        0.5740233081       -1.5788882490
 C         -2.1396589911       -0.1752897239       -1.0708528690
 O         -1.1031450793       -0.1149066905       -1.7572240270
 O         -3.8192183034       -1.4114950288        1.8800239686
 C         -1.2661536264       -1.7232274186        0.7435331569
 C          0.0159588825       -0.9359265719        0.8250076001
 C          0.1482667312        0.0483301144        1.7999394779
 C          1.3064573207        0.7961625022        1.8974593822
 C          2.3554053650        0.5825744083        1.0205500022
 C          2.2315299676       -0.3925834810        0.0407918359
 C          1.0720375909       -1.1513484928       -0.0460575682
 H          0.9813378924       -1.8956412747       -0.8222573127
 N          3.2881175845       -0.5975689405       -0.8644751522
 S          4.8110480068       -0.9127266108       -0.2372960004
 O          5.5063767627       -1.6499567685       -1.2700499063
 O          4.7255766471       -1.5490210977        1.0575322659
 C          5.5545762704        0.6968997057       -0.0754252924
 C          6.0151582306        1.1220511869        1.1551814951
 C          6.5994549119        2.3751453416        1.2556986137
 C          6.7127520473        3.1759212348        0.1295991657
 C          6.2470350418        2.7331706365       -1.0996622413
 C          5.6629242925        1.4812286723       -1.2070254658
 H          5.2918671442        1.0989140953       -2.1434062988
 H          6.3367160847        3.3588978722       -1.9730890000
 H          7.1668416531        4.1509700637        0.2100080489
 H          6.9623761621        2.7211383705        2.2102183337
 H          5.9011234230        0.4666743489        2.0039084275
 H          3.0620277389       -1.2390427989       -1.6105705420
 H          3.2595520863        1.1659309872        1.0848222399
 H          1.3936833940        1.5547992211        2.6604215874
 H         -0.6737274550        0.2215748202        2.4811100409
 H         -1.6217302170       -1.8978692579        1.7723232602
 C         -1.0771187084       -3.0971199710        0.1169184334
 C         -2.2578494907       -3.8830867078       -0.3669391642
 C         -1.2519075012       -3.3625843644       -1.3471974811
 H         -0.5851016945       -4.0700342769       -1.8193346385
 H         -1.5284787370       -2.5356708709       -1.9822428624
 H         -2.2873002813       -4.9441867808       -0.1704823551
 H         -3.2244043991       -3.4025603875       -0.3248204743
 H         -0.2962056557       -3.6605518853        0.6202541254
