  62
        -98.93426436
 C          2.3380656903        0.6035716698       -0.0594946710
 C          3.6005539303        0.8544945398        0.5273316190
 C          4.5570642803       -0.2643258803        0.5278242191
 C          4.1869725002       -1.4464588803        0.0060228992
 C          4.9748381001       -2.7312680804       -0.0584787107
 C          6.4585058801       -2.6369365505       -0.4400079607
 C          6.8042656902       -1.5172508006       -1.4324941308
 H          7.3825325201       -1.9398098208       -2.2562302008
 H          5.8903069102       -1.0984666906       -1.8570585809
 C          7.6345513302       -0.3963459606       -0.8025786809
 H          8.4031250602       -0.8437601606       -0.1685637609
 H          8.1453763503        0.1517760992       -1.5978695910
 C          6.8440035303        0.6244840995        0.0147742489
 H          6.2302830004        1.2371045095       -0.6511167511
 H          7.5587169004        1.2947626795        0.4982264089
 C          5.9169370203        0.0352946497        1.0905086390
 H          6.3612521402       -0.8397081103        1.5584863091
 H          5.7634263004        0.7998499298        1.8570077089
 H          7.0589808601       -2.5115907205        0.4598765793
 H          6.7343757500       -3.6018231006       -0.8688450806
 H          4.8853980201       -3.2321734602        0.9100397394
 H          4.4475277700       -3.3500949804       -0.7885318406
 O          2.9521549702       -1.6487241003       -0.5364056508
 C          2.0016521402       -0.6415857802       -0.5871824209
 O          0.9268457502       -0.9773694002       -1.1212919308
 O          3.9120976804        1.9623109098        1.0405137288
 C          1.3062279304        1.7176123999       -0.0810007911
 C          0.1136869404        1.2939468001        0.7402338489
 C          0.3041687904        1.0246656902        2.0937252990
 C         -0.7450634996        0.5970551104        2.8828069690
 C         -2.0093523097        0.4303982704        2.3431670391
 C         -2.2099577097        0.6935937503        0.9959461390
 C         -1.1518361696        1.1275420401        0.2041691890
 H         -1.3210801796        1.3191610700       -0.8437365211
 N         -3.4940185797        0.5591087803        0.4328331991
 S         -4.4341330898       -0.7739548896        0.8687588892
 O         -4.9392531697       -0.5612691294        2.2024035492
 O         -3.7038583499       -2.0046926196        0.6594042194
 C         -5.7656633898       -0.6250737596       -0.3060702508
 C         -6.7989830397        0.2495893105       -0.0281535709
 C         -7.8232826597        0.3903300005       -0.9506678409
 C         -7.7972224998       -0.3410467697       -2.1289126008
 C         -6.7540462498       -1.2157635798       -2.3932588807
 C         -5.7253687998       -1.3603059097       -1.4753615507
 H         -4.8984626099       -2.0340605698       -1.6357248306
 H         -6.7375181599       -1.7851228899       -3.3087521206
 H         -8.5961889198       -0.2313477897       -2.8450829908
 H         -8.6371915896        1.0675716506       -0.7483193509
 H         -6.7805696797        0.7894195106        0.9039581591
 H         -3.4659719597        0.6445588802       -0.5747532910
 H         -2.8333033097        0.0865730906        2.9467045291
 H         -0.5812239796        0.3877314105        3.9295558090
 H          1.2928732504        1.1469357402        2.5151017689
 H          1.7846040105        2.5672993999        0.4269233488
 C          0.9739387604        2.1216212598       -1.5011028912
 C          0.3835906505        3.4717826498       -1.7750618413
 C          1.7996651005        3.1791829296       -2.1678577013
 H          2.0327279105        3.0655859795       -3.2160090413
 H          2.5954909405        3.6260386896       -1.5901923414
 H         -0.3556253095        3.5637286797       -2.5563185413
 H          0.2155405206        4.1217392899       -0.9298954814
 H          0.6502501304        1.2856213697       -2.1109428411
