  62
        -98.93557033
 C         -1.9200701729       -0.9903471522        0.2276926228
 C         -2.3670907618       -0.0030702382        1.1373870940
 C         -2.6405405656        1.3368230979        0.5913858191
 C         -2.4129682448        1.5735008138       -0.7136697285
 C         -2.5421522083        2.8401588141       -1.5344393325
 C         -3.3117855996        4.0447547435       -0.9983797258
 C         -4.8169815011        3.8271022079       -0.8466668026
 H         -5.2429606185        4.7128837703       -0.3707333365
 H         -5.2570665291        3.7391109007       -1.8430268936
 C         -5.2268755099        2.5902231883       -0.0513343867
 H         -6.3192700861        2.5584219245       -0.0214255293
 H         -4.8927691504        1.6915922887       -0.5740814070
 C         -4.7217160291        2.5421148275        1.3894621890
 H         -5.0102804444        3.4562846203        1.9114889172
 H         -5.2178394047        1.7029766324        1.8844751444
 C         -3.2045469785        2.3420634783        1.5539770703
 H         -3.0210592816        1.9415001978        2.5554583153
 H         -2.6677668322        3.2852003082        1.4795842935
 H         -2.8780841210        4.3802388493       -0.0608815421
 H         -3.1659440465        4.8519787378       -1.7213610840
 H         -1.5138325395        3.1509674805       -1.7521197340
 H         -2.9791220076        2.5318031482       -2.4897221916
 O         -1.9369335538        0.6026505407       -1.5456960272
 C         -1.6656029210       -0.6840976713       -1.1090474680
 O         -1.2277121157       -1.4347556828       -2.0011059148
 O         -2.5257873278       -0.2290193331        2.3686213555
 C         -1.5891071469       -2.3662909710        0.7783514907
 C         -0.2196504862       -2.7755799437        0.2968625430
 C          0.0521124718       -3.9651764901       -0.3643326506
 C          1.3337744771       -4.2369713552       -0.8118925926
 C          2.3595456840       -3.3305720745       -0.6232381685
 C          2.0992647499       -2.1409071752        0.0494549373
 C          0.8241848482       -1.8854856036        0.5211004682
 H          0.6291650639       -0.9552152853        1.0370043062
 N          3.1242868098       -1.2044891580        0.2786735522
 S          2.7256731911        0.4350949764        0.3105186999
 O          2.2039470597        0.7586772540        1.6161125246
 O          1.8927164868        0.7853853138       -0.8185452644
 C          4.3505394518        1.1483277165        0.1280390461
 C          4.7744230234        1.5637339668       -1.1200159722
 C          6.0519641747        2.0845897186       -1.2553459519
 C          6.8807363707        2.1763942653       -0.1472508337
 C          6.4411968289        1.7555767602        1.0992703934
 C          5.1645567425        1.2356404952        1.2417459756
 H          4.7745988015        0.9044548238        2.1899814582
 H          7.0871098995        1.8308877119        1.9590436513
 H          7.8744516360        2.5812760251       -0.2555588500
 H          6.3944913727        2.4154588869       -2.2225399913
 H          4.0915427561        1.4790921333       -1.9504540775
 H          3.9378516301       -1.3712954549       -0.2983196925
 H          3.3517074041       -3.5343382403       -0.9963546968
 H          1.5311374655       -5.1610128054       -1.3339968252
 H         -0.7428936961       -4.6664769709       -0.5570850906
 H         -1.5302383123       -2.2132843039        1.8700008429
 C         -2.6619695540       -3.4189381054        0.5455239329
 C         -4.0929020240       -3.0279969453        0.3312387593
 C         -3.3033990713       -3.6249596776       -0.7928386576
 H         -3.5350321981       -4.6345995398       -1.0992776005
 H         -2.9859377807       -2.9834730156       -1.5996232741
 H         -4.8629288749       -3.6248003061        0.7966629853
 H         -4.3212784521       -1.9726392979        0.2914382745
 H         -2.4948520918       -4.3071245590        1.1472388904
