  62
        -98.92724286
 C         -2.4787654976       -1.2447841768        0.4087057061
 C         -2.9086281627       -0.4971304499       -0.7130663791
 C         -3.8979453153        0.5740902556       -0.4575843048
 C         -4.3264137929        0.7827526374        0.8000251761
 C         -5.2926889285        1.8243998075        1.2980935230
 C         -4.6612674461        3.2233537398        1.3869752181
 C         -3.7999425999        3.6169131811        0.1896680333
 H         -3.3235678293        4.5726483654        0.4238304375
 H         -3.0033754941        2.8811398790        0.0635706459
 C         -4.5536934723        3.7813765271       -1.1278895470
 H         -5.3214344220        4.5490052716       -1.0073519302
 H         -3.8359660576        4.1429896764       -1.8685876398
 C         -5.2135520283        2.5179505288       -1.6841459262
 H         -5.4954816683        2.7283419285       -2.7199964729
 H         -6.1350438558        2.2912126312       -1.1547167346
 C         -4.3097492061        1.2895520240       -1.7217655706
 H         -4.7859489487        0.5264974682       -2.3491578496
 H         -3.3778900422        1.5454945193       -2.2385427587
 H         -5.4601957988        3.9546431000        1.5205324051
 H         -4.0267373985        3.2508572642        2.2763345131
 H         -6.1808053380        1.8382068926        0.6734398618
 H         -5.5964264840        1.5158812500        2.3009591847
 O         -3.8668457135        0.0477982186        1.8546385451
 C         -2.9407763767       -0.9602328081        1.6945581924
 O         -2.6079262595       -1.5261028181        2.7583681940
 H          0.3610366390       -1.1388908111        1.6907895458
 C          0.6584152992       -1.1705838033        0.6491010624
 C         -0.1744773999       -1.8081420570       -0.2674248710
 C          0.2185535315       -1.8188359398       -1.5997890078
 C          1.4075764184       -1.2231676802       -1.9873718291
 C          2.2266306165       -0.5916340711       -1.0707988476
 C          1.8411445928       -0.5594464200        0.2628726068
 N          2.6442680270        0.1076755175        1.2046507028
 S          4.2844205732       -0.2465181758        1.2490576120
 O          4.5445605418       -1.6026285612        0.8243294320
 O          4.7091077642        0.1000443156        2.5878903692
 C          5.0039078375        0.9036907957        0.0962270670
 C          5.8197589875        0.4417919461       -0.9179380523
 C          6.3785743903        1.3563151163       -1.7972790399
 C          6.1137086713        2.7088684789       -1.6468981370
 C          5.2943236219        3.1566605500       -0.6211879777
 C          4.7339241356        2.2479642847        0.2621966874
 H          4.0944713302        2.5550087948        1.0730635920
 H          5.0902108640        4.2092153465       -0.5075821118
 H          6.5479652007        3.4186215665       -2.3332028014
 H          7.0162610810        1.0104200333       -2.5948371693
 H          5.9918109676       -0.6195963614       -0.9998779440
 H          2.2555556914        0.1158890077        2.1365799868
 H          3.1486529346       -0.1240526938       -1.3751319447
 H          1.6938250086       -1.2447440823       -3.0279547335
 H         -0.4096522392       -2.2604145110       -2.3513941141
 C         -1.4570830009       -2.3715324639        0.2946657933
 H         -1.2374436337       -2.6406838253        1.3400332527
 C         -2.0773701996       -3.6267180221       -0.3042452674
 C         -2.4622479688       -3.8275860571       -1.7376747640
 C         -1.3303941138       -4.6147643541       -1.1487787433
 H         -1.4876004328       -5.6659154361       -0.9568512151
 H         -0.3214089615       -4.3700605125       -1.4403565379
 H         -3.3930939043       -4.3425683729       -1.9304700068
 H         -2.2647708847       -3.0335468042       -2.4378733110
 H         -2.7723230960       -4.0532865742        0.4164076563
 O         -2.4986484216       -0.6891948710       -1.8842010204
