  62
        -98.93977669
 C          2.2688432197        0.9284661304        0.6482016592
 C          3.3932616596        0.8258715801       -0.2073626509
 C          4.3233873497       -0.2769313197        0.0825480095
 C          4.0689056500       -1.1109662791        1.1059193200
 C          4.8985096802       -2.3085609689        1.4663628105
 C          4.3972725102       -3.5693242293        0.7480833913
 C          4.1846543899       -3.3820925601       -0.7542781088
 H          3.8608763399       -4.3437555104       -1.1584096782
 H          3.3652376198       -2.6765528003       -0.9123088390
 C          5.4261503297       -2.8980530604       -1.5165227093
 H          6.3201929898       -3.0743926700       -0.9174725994
 H          5.5265295096       -3.4867882109       -2.4306937990
 C          5.3789824595       -1.4277705007       -1.9358993501
 H          4.4389903393       -1.2249429210       -2.4551759400
 H          6.1910031493       -1.2506410810       -2.6460061103
 C          5.5321278796       -0.4067082600       -0.8018035107
 H          6.4177991797       -0.6439809796       -0.2093633607
 H          5.6756340394        0.5768662797       -1.2580844512
 H          3.4444229003       -3.8653938192        1.1934986616
 H          5.1165761403       -4.3724044391        0.9188034816
 H          4.8281836204       -2.4630489883        2.5443672006
 H          5.9368859401       -2.1165058889        1.2032275102
 O          2.9839431201       -0.9784247088        1.9122981101
 C          2.0651862300        0.0350605110        1.7046749897
 O          1.1260372802        0.0450121813        2.5276994299
 O          3.6346639593        1.6043511896       -1.1668085814
 C          1.2030627996        2.0025902502        0.4898245788
 C          0.2420593094        1.6384111595       -0.6173083708
 C          0.6169846191        1.6788854288       -1.9564425609
 C         -0.2856708810        1.3308034482       -2.9443122005
 C         -1.5718110109        0.9371815783       -2.6202581601
 C         -1.9576298307        0.8960355189       -1.2852688600
 C         -1.0501720505        1.2467781296       -0.2955382603
 H         -1.3533477803        1.1915996101        0.7397894197
 N         -3.2732884406        0.5420280890       -0.9366751195
 S         -3.5404089302       -0.3396495102        0.4786942310
 O         -3.4781159001        0.5580590404        1.6041370005
 O         -2.6713390201       -1.4951749101        0.5162203515
 C         -5.2314649302       -0.8404957206        0.2124315716
 C         -5.5068661101       -2.1233046308       -0.2210599577
 C         -6.8254257102       -2.4849951711       -0.4502347572
 C         -7.8399277602       -1.5619417111       -0.2463968175
 C         -7.5480090103       -0.2778774608        0.1897189717
 C         -6.2324120902        0.0894981595        0.4225228013
 H         -5.9577473503        1.0713561897        0.7709066207
 H         -8.3394907303        0.4363084192        0.3497908915
 H         -8.8648407502       -1.8459059313       -0.4257270772
 H         -7.0553773901       -3.4834294113       -0.7857047766
 H         -4.6859147801       -2.8086957008       -0.3586889274
 H         -3.7809199207        0.1376300785       -1.7125998892
 H         -2.2740402510        0.6652162178       -3.3938411098
 H          0.0177009688        1.3612326677       -3.9800040206
 H          1.6264766991        1.9607668888       -2.2113014212
 H          0.6363030997        1.9935105407        1.4313596989
 C          1.7779828694        3.3919562402        0.2931278980
 C          0.9096788093        4.5774642503        0.5830917075
 C          2.0530207295        4.2444170209        1.4931350674
 H          2.9248489495        4.8811255209        1.4833627469
 H          1.8278013198        3.8272142914        2.4643954677
 H          0.9941360791        5.4459482299       -0.0516719830
 H         -0.0922368006        4.3856842003        0.9380062478
 H          2.4711387492        3.4617800998       -0.5340148622
