  62
        -98.94804333
 C          1.2568040780        1.0525340119       -0.0353077849
 C          1.6301318995        0.0044415717        0.8387671346
 C          2.6525522143       -0.9176060594        0.3348954600
 C          3.1195575067       -0.7734459190       -0.9184820941
 C          4.1347487508       -1.6575320268       -1.5908514170
 C          5.5914302342       -1.2972202981       -1.2676975035
 C          6.0526397891       -1.6548892945        0.1457553337
 H          5.8230696685       -2.7018509328        0.3466732500
 H          7.1392336144       -1.5499644897        0.1636776502
 C          5.4528644541       -0.7727627222        1.2494989726
 H          6.2426247614       -0.4633987069        1.9376569155
 H          5.0403225322        0.1357752454        0.8049262736
 C          4.3663860305       -1.4521301628        2.0830603245
 H          4.7978982258       -2.2893831368        2.6359659240
 H          3.9883412567       -0.7277502419        2.8088455436
 C          3.1752710150       -1.9697298907        1.2656227676
 H          2.3696921705       -2.2323505470        1.9561492313
 H          3.4578603357       -2.8633502850        0.7089424757
 H          6.2238898767       -1.8324411425       -1.9797199702
 H          5.7313254596       -0.2271819292       -1.4375264214
 H          3.9456454484       -2.6982041553       -1.3246402345
 H          3.9806953113       -1.5430937499       -2.6661883712
 O          2.6904470881        0.2113383539       -1.7520024258
 C          1.7593950106        1.1517611466       -1.3323149723
 O          1.4678162565        2.0032509465       -2.1939457965
 O          1.1260398043       -0.1558767948        1.9835901224
 C          0.2153899507        2.0547782488        0.4232112517
 C         -1.0339406647        1.9549213519       -0.4185094531
 C         -1.8153931066        3.0533458419       -0.7561023162
 C         -2.9683506684        2.8874269178       -1.5039807842
 C         -3.3816268731        1.6307005326       -1.9078274580
 C         -2.6094843209        0.5250130117       -1.5703072990
 C         -1.4468629863        0.6980539466       -0.8375230339
 H         -0.8410410787       -0.1652409853       -0.6105318733
 N         -2.9848852516       -0.7712294981       -1.9528416198
 S         -2.6773161272       -2.0564516020       -0.9285881337
 O         -1.2783080608       -2.4042877057       -0.9575187807
 O         -3.5905144226       -3.0880178880       -1.3740577437
 C         -3.1675389742       -1.4777705104        0.6863243333
 C         -2.2292649118       -1.1890418481        1.6552833438
 C         -2.6596775070       -0.6887612181        2.8747607532
 C         -4.0111361499       -0.4878349372        3.1047348059
 C         -4.9434591910       -0.7922265581        2.1238636266
 C         -4.5196494484       -1.2885377573        0.9028026326
 H         -5.2132784152       -1.5477198328        0.1195037089
 H         -5.9950589758       -0.6409468762        2.3064378585
 H         -4.3384327820       -0.0947420731        4.0543184160
 H         -1.9256505780       -0.4545840655        3.6294436106
 H         -1.1802757512       -1.3458811698        1.4576225491
 H         -3.8894452401       -0.8440363078       -2.3942106701
 H         -4.2835824570        1.5041917672       -2.4864438825
 H         -3.5598971443        3.7502678517       -1.7695667654
 H         -1.5169522768        4.0398450586       -0.4413317763
 H         -0.0506334363        1.7480351243        1.4470415215
 C          0.7987198933        3.4520997579        0.4706765617
 C          0.3339537264        4.4349039714        1.5025461105
 C          1.6960954877        3.8210265885        1.6129525195
 H          2.5609078779        4.4353842404        1.4120972146
 H          1.8610940159        3.0724746952        2.3743207963
 H          0.2650754137        5.4765737294        1.2273588720
 H         -0.4238488982        4.1092301373        2.1989069902
 H          1.0624698450        3.8242576180       -0.5128037902
