  62
        -98.93785413
 C         -2.0902947402       -1.1994442695       -0.0053679295
 C         -1.6862140600        0.0920681405       -0.4249447995
 C         -2.7567011198        1.0809390607       -0.6230304494
 C         -4.0233567898        0.7541836109       -0.3146763695
 C         -5.1965388597        1.6863611712       -0.3941289994
 C         -5.4068873195        2.4264598211        0.9345377706
 C         -4.1346869894        3.0564554809        1.5025582507
 H         -4.4121390293        3.5727250808        2.4243199007
 H         -3.4358357596        2.2632545007        1.7790608006
 C         -3.4340062692        4.0413730508        0.5561662108
 H         -3.1536343390        4.9314158507        1.1234236708
 H         -4.1259248291        4.3592593910       -0.2246932792
 C         -2.1556083093        3.5024149406       -0.0885685193
 H         -1.6341059491        4.3406701605       -0.5582106292
 H         -1.4961385194        3.0983067804        0.6839853707
 C         -2.3581857595        2.4260393907       -1.1621023893
 H         -3.0849199194        2.7740108308       -1.8988740393
 H         -1.3996812795        2.2740875305       -1.6664867093
 H         -5.7922039797        1.7154945512        1.6691753806
 H         -6.1614811994        3.2004979713        0.7830949307
 H         -5.0319949695        2.4010671112       -1.1981396694
 H         -6.0890599098        1.0996166214       -0.6174195795
 O         -4.3641934701       -0.4631925790        0.1753679605
 C         -3.4143130803       -1.4596274092        0.3656179204
 O         -3.8789373905       -2.4958749192        0.8717130004
 H          1.3796691996       -1.7572533602        1.2709891405
 C          1.4054002296       -1.8191772202        0.1930624505
 C          0.2369510296       -2.0324997499       -0.5228301995
 C          0.3083876896       -2.1060023598       -1.9114794396
 C          1.5135813797       -1.9320687900       -2.5619971095
 C          2.6721310697       -1.6843115403       -1.8455429095
 C          2.6141911197       -1.6216554204       -0.4594655495
 N          3.7771706597       -1.3898341407        0.3026990606
 S          3.8425192200       -0.0778578107        1.3395082106
 O          5.1772745199       -0.1178522310        1.8982490707
 O          2.7574952499       -0.1456062106        2.2847503606
 C          3.6882731803        1.3627338794        0.2973152107
 C          2.4593347403        1.6809410396       -0.2449929693
 C          2.3702770406        2.7811331697       -1.0845695792
 C          3.4969855007        3.5368576995       -1.3673584592
 C          4.7242211606        3.2001968492       -0.8157792892
 C          4.8234295404        2.1013250692        0.0215671008
 H          5.7547019503        1.8035451789        0.4759014408
 H          5.6008108908        3.7879363391       -1.0363439091
 H          3.4175830109        4.3913812496       -2.0209295991
 H          1.4119701906        3.0308603999       -1.5113498292
 H          1.5900621902        1.0815428298       -0.0255372593
 H          4.6286151297       -1.4187539108       -0.2414263594
 H          3.6133505897       -1.5395465605       -2.3545719495
 H          1.5539890297       -1.9815713100       -3.6397242195
 H         -0.5953555404       -2.2780799696       -2.4772255796
 C         -1.0585738905       -2.3031808197        0.2023236704
 H         -0.8371326505       -2.3601668398        1.2808286504
 C         -1.5746701607       -3.6656881296       -0.2487983297
 C         -0.6607606110       -4.8548926997       -0.1747748897
 C         -1.8392968710       -4.7555292096        0.7412850403
 H         -2.6915713111       -5.3959910794        0.5757008502
 H         -1.6657100709       -4.5350484497        1.7835872303
 H         -0.6895687911       -5.5759847497       -0.9770449798
 H          0.3234002891       -4.7014421400        0.2425409003
 H         -2.2451039207       -3.6130031494       -1.0989239597
 O         -0.4904451399        0.4276661403       -0.6258937094
