  62
        -98.94077423
 C          1.6314376188        1.5450086173       -0.2224057900
 C          2.8498748755        1.3103842352        0.4595219790
 C          3.6663471443        0.1797642264       -0.0155824682
 C          3.2109212911       -0.5679072656       -1.0357835626
 C          3.8381772185       -1.8029871347       -1.6215017440
 C          3.2882009485       -3.0676717538       -0.9391199626
 C          4.0482203281       -3.5067812078        0.3111080170
 H          3.4957644651       -4.3387400312        0.7535964422
 H          5.0309131143       -3.8846969678        0.0213024219
 C          4.2336639189       -2.4202931313        1.3732213651
 H          3.3059145926       -1.8568520964        1.4893448401
 H          4.4338374855       -2.9131765328        2.3264956935
 C          5.3906959895       -1.4607453559        1.0581522469
 H          6.0486127765       -1.3887307465        1.9268811649
 H          5.9921914279       -1.8777480963        0.2506064221
 C          4.9715559896       -0.0270999449        0.7039152801
 H          5.7687667576        0.4422737774        0.1173057336
 H          4.8763865826        0.5596984450        1.6230195475
 H          2.2430138696       -2.8812392950       -0.6820769428
 H          3.3104715719       -3.8907365898       -1.6562000296
 H          4.9208065032       -1.7567036209       -1.5516599761
 H          3.5565391198       -1.8244599870       -2.6764169139
 O          2.0303040511       -0.3097432936       -1.6618369121
 C          1.2168760763        0.7467049596       -1.2878614236
 O          0.1846542984        0.8585250107       -1.9757066642
 O          3.2372965622        2.0139696731        1.4305262931
 C          0.7362165294        2.6706850311        0.2708101048
 C         -0.5060163101        2.0278166691        0.8341913118
 C         -0.4641838648        1.4654685134        2.1075053505
 C         -1.5482684196        0.7709153177        2.6103517700
 C         -2.6890112399        0.6003545989        1.8445779949
 C         -2.7343710257        1.1490007414        0.5702647703
 C         -1.6591564138        1.8779579490        0.0803920820
 H         -1.7100058970        2.2905355288       -0.9142747872
 N         -3.8671637027        0.9323443666       -0.2356153492
 S         -4.4366329899       -0.6404917404       -0.3091149273
 O         -5.0344115793       -0.7724706113       -1.6198524464
 O         -5.3252489331       -0.8762669942        0.8032158365
 C         -3.0112157347       -1.7077225990       -0.1619256169
 C         -1.9380239736       -1.5160737650       -1.0086651634
 C         -0.8406820391       -2.3547115928       -0.8981250652
 C         -0.8336740615       -3.3673303903        0.0481230436
 C         -1.9208711484       -3.5489088816        0.8890952839
 C         -3.0198821900       -2.7120289436        0.7855335903
 H         -3.8834012541       -2.8135611786        1.4228358441
 H         -1.9130993814       -4.3368084351        1.6249494887
 H          0.0232294102       -4.0181722833        0.1299895630
 H          0.0039371141       -2.1945942967       -1.5505010920
 H         -1.9401615528       -0.7164385206       -1.7322520042
 H         -3.7760197888        1.3192472125       -1.1641873609
 H         -3.5387262969        0.0467295469        2.2103700520
 H         -1.5030003681        0.3468502217        3.6017889819
 H          0.4391683372        1.5681364802        2.6923982836
 H          1.2870488617        3.1455515787        1.0932156947
 C          0.4704933155        3.7056465578       -0.8010972791
 C         -0.1077788782        5.0323568557       -0.4115917807
 C          1.3203460005        4.9381849100       -0.8551968627
 H          1.5881673121        5.3365301387       -1.8224130074
 H          2.0957995121        5.0437439851       -0.1108150563
 H         -0.8223426322        5.4993194493       -1.0721816440
 H         -0.3033975653        5.2006037421        0.6366047366
 H          0.1658340695        3.2777214917       -1.7485063867
