  62
        -98.94707216
 C          1.2229811196        0.7988065899        0.6713982501
 C          2.0232894500        0.7122394505       -0.4927077996
 C          2.7278694502       -0.5603884893       -0.6889431500
 C          2.5304292700       -1.5757407597        0.1704733995
 C          3.1473093401       -2.9453520296        0.0808000791
 C          4.5609265599       -3.0370136198        0.6722912095
 C          5.6585765401       -2.3678603193       -0.1558762698
 H          6.6149322000       -2.6952593494        0.2566140604
 H          5.6064020405       -2.7285872989       -1.1836073500
 C          5.6145087200       -0.8335510993       -0.1437934291
 H          4.9933720697       -0.4937117598        0.6879760708
 H          6.6199272899       -0.4415716893        0.0248820614
 C          5.0938020104       -0.2052536088       -1.4364386990
 H          5.0699997303        0.8794997011       -1.3056975885
 H          5.7790959707       -0.4311260384       -2.2564008289
 C          3.6853290106       -0.6635574087       -1.8374892597
 H          3.7135847008       -1.6845093585       -2.2187528502
 H          3.3203568508       -0.0059161084       -2.6306130895
 H          4.5475320795       -2.6059739103        1.6759666797
 H          4.8041218300       -4.0976603998        0.7689373691
 H          3.1621926205       -3.2698920492       -0.9603064011
 H          2.4931041200       -3.6173542500        0.6408725085
 O          1.7026816896       -1.4742241503        1.2437873092
 C          1.0374519094       -0.2899916805        1.5215548896
 O          0.3161063590       -0.3361969410        2.5396797393
 O          2.1478796702        1.6464619209       -1.3276515092
 C          0.4389652794        2.0680449897        0.9635384004
 C         -0.5378912902        2.2869136102       -0.1670641298
 C         -0.6298959601        3.4562966105       -0.9078238193
 C         -1.5057323397        3.5316993909       -1.9782019895
 C         -2.2927281495        2.4522364610       -2.3328984703
 C         -2.2228757097        1.2822365907       -1.5815989008
 C         -1.3691542500        1.2222662203       -0.4942914506
 H         -1.3036535402        0.3137952100        0.0837378990
 N         -3.0251898495        0.1812974608       -1.8986540616
 S         -2.7342279895       -1.3657927995       -1.3479982122
 O         -1.3263142595       -1.6849274494       -1.2905873819
 O         -3.5353997792       -2.1964412091       -2.2232182529
 C         -3.4722570501       -1.3631347503        0.2719524675
 C         -2.7125120505       -1.5948222907        1.3995616877
 C         -3.3287775909       -1.5647633313        2.6413570175
 C         -4.6880572409       -1.3113190815        2.7325827472
 C         -5.4409463806       -1.0892591810        1.5886156270
 C         -4.8295262201       -1.1134853304        0.3465675672
 H         -5.3773891698       -0.9521707900       -0.5667731429
 H         -6.4986724306       -0.8947085712        1.6632063267
 H         -5.1615632613       -1.2872702320        3.7014415570
 H         -2.7328177112       -1.7296925017        3.5248428976
 H         -1.6531368104       -1.7800414006        1.3041980380
 H         -3.4937745292        0.2127867011       -2.7904644917
 H         -2.9526287292        2.5065939414       -3.1850406805
 H         -1.5627452296        4.4413963012       -2.5566058492
 H         -0.0049219302        4.2992517504       -0.6635323487
 H         -0.1346640409        1.8687595393        1.8803578702
 C          1.3699030692        3.2354382797        1.2084099613
 C          0.9155000588        4.3944383993        2.0423111217
 C          1.9344601687        3.4370392991        2.5813927116
 H          2.9578995387        3.7681779792        2.6742416021
 H          1.6298633885        2.7415658687        3.3501735612
 H          1.2413117588        5.3864223094        1.7683416022
 H         -0.0827566513        4.3541612790        2.4509402613
 H          2.0224372995        3.4324858101        0.3659928716
