  62
        -98.94945809
 C         -0.8127237507       -1.7687018702       -0.2830412495
 C         -2.1089156009       -1.7531855501        0.2801614501
 C         -2.9988471607       -0.6870248402       -0.1918629904
 C         -2.5519819805        0.2018602996       -1.0974414205
 C         -3.3302883603        1.3632322294       -1.6544221610
 C         -3.3311044606        2.5998445097       -0.7442534613
 C         -4.2238307710        2.4993238299        0.4931019785
 H         -4.3266735811        3.5093795700        0.8951666482
 H         -5.2188271509        2.1601098699        0.2017804682
 C         -3.6655181413        1.5901056002        1.5967748788
 H         -2.5935904312        1.4421531902        1.4404537292
 H         -3.7715029316        2.0878284204        2.5641118587
 C         -4.3568489713        0.2312328102        1.7115429089
 H         -3.8398580715       -0.3503210296        2.4792625092
 H         -5.3904457514        0.3744132703        2.0365240386
 C         -4.3649605709       -0.5917094701        0.4176554491
 H         -5.0695825807       -0.1633495703       -0.2951317312
 H         -4.6882800710       -1.6067848300        0.6632754393
 H         -2.3074745307        2.8035823297       -0.4186985810
 H         -3.6680372204        3.4488736895       -1.3441496316
 H         -4.3582177203        1.0581801494       -1.8538317613
 H         -2.8570812201        1.6300136092       -2.6018507309
 O         -1.3090933903        0.1324443095       -1.6426816301
 C         -0.4030931404       -0.8364589004       -1.2373995296
 O          0.7083118597       -0.7679349905       -1.7943985093
 O         -2.5024692711       -2.5886252799        1.1404518801
 C          0.1987607592       -2.7806577001        0.2156845010
 C          1.4307692090       -2.0916584199        0.7538473412
 C          2.6777266190       -2.7071385399        0.7761984417
 C          3.7824180888       -2.0395852698        1.2751941219
 C          3.6792151087       -0.7376235197        1.7312784515
 C          2.4376778887       -0.1134849097        1.7109561310
 C          1.3259120588       -0.8031687698        1.2576486009
 H          0.3687230288       -0.3048854198        1.2741933405
 N          2.2765804986        1.2182322704        2.1338888407
 S          1.3365432888        2.2568616902        1.2238113202
 O          1.7164631687        3.5749779903        1.6947370400
 O         -0.0616484512        1.9342514702        1.3657707698
 C          1.8348926393        2.1016160798       -0.4827009797
 C          3.1345542194        1.7743513297       -0.8101968592
 C          3.4931719598        1.7158872894       -2.1468972591
 C          2.5573567201        1.9951630592       -3.1291492194
 C          1.2603304000        2.3361918692       -2.7843099199
 C          0.8959873896        2.3906599295       -1.4499716400
 H         -0.1087102505        2.6332737896       -1.1427024804
 H          0.5271269502        2.5469036291       -3.5464741002
 H          2.8377345504        1.9410489489       -4.1693840893
 H          4.5014588999        1.4456287794       -2.4169839087
 H          3.8518266192        1.5564513399       -0.0362936389
 H          3.1233886285        1.6758932105        2.4394034108
 H          4.5460832786       -0.2098503596        2.0995180717
 H          4.7419814388       -2.5332434998        1.2919596523
 H          2.7827915991       -3.7115053900        0.3992811520
 H         -0.2957942211       -3.3088015299        1.0456337710
 C          0.5285161995       -3.7862553803       -0.8712939187
 C          0.7789459094       -5.2251540902       -0.5340814783
 C         -0.4901185904       -4.8273207704       -1.2237617687
 H         -0.6219995301       -5.0901674907       -2.2625055687
 H         -1.4071993006       -4.8318544603       -0.6526292790
 H          1.5204235796       -5.7659335204       -1.1027813879
 H          0.7159266991       -5.5166855000        0.5036414618
 H          1.0930682397       -3.3430999005       -1.6839059186
