  62
        -98.93602573
 C          2.2769530925        0.7896478075        0.0763914125
 C          3.2873445155        0.4626188720        1.0152879002
 C          4.2351401768       -0.5875402110        0.6162484405
 C          4.0797525962       -1.1880840835       -0.5776569054
 C          4.9975353625       -2.2259432413       -1.1585256879
 C          6.2732997560       -1.5550099514       -1.7064938831
 C          7.5543676343       -1.9368406325       -0.9646560141
 H          7.8515454884       -2.9438473357       -1.2649564094
 H          8.3385676071       -1.2507930712       -1.2918516680
 C          7.4735082452       -1.9088597838        0.5646693966
 H          8.4995299838       -1.9380779716        0.9375738096
 H          6.9867204631       -2.8169700102        0.9232967494
 C          6.7613635381       -0.6957592946        1.1770390287
 H          7.3079396419       -0.3986065356        2.0743800699
 H          6.7896460413        0.1528314664        0.4932255745
 C          5.3054059948       -0.9566494324        1.6061587793
 H          5.1915329718       -2.0060254843        1.8919168034
 H          5.0881244089       -0.3508006259        2.4907550715
 H          6.1357918288       -0.4724947976       -1.6647470282
 H          6.3976983778       -1.8147415749       -2.7588388074
 H          5.2483533327       -2.9617291968       -0.3977042519
 H          4.4554699561       -2.7248117207       -1.9620809080
 O          3.0889422249       -0.8584266502       -1.4450382879
 C          2.1627420746        0.1309508104       -1.1474384408
 O          1.3193233669        0.3176188095       -2.0450806240
 H         -0.8629671674        1.5240593608       -1.2375094417
 C         -1.0388347225        1.1020640450       -0.2605156342
 C         -0.0605718029        1.1970350593        0.7169237577
 C         -0.3048457716        0.6235611959        1.9618495288
 C         -1.4967369373       -0.0276850247        2.2173162402
 C         -2.4659229536       -0.1316946090        1.2344859867
 C         -2.2303237719        0.4321423486       -0.0117833574
 N         -3.1933653143        0.3021512172       -1.0251963636
 S         -4.7942387672        0.6567592885       -0.6842740639
 O         -5.3905402991        0.9881736224       -1.9599680603
 O         -4.9066538261        1.6544633329        0.3546468512
 C         -5.4653980848       -0.8919303702       -0.1164244685
 C         -5.3335510654       -1.9973443159       -0.9338055449
 C         -5.8561133913       -3.2088127662       -0.5103052986
 C         -6.5004971202       -3.2936219472        0.7150495460
 C         -6.6282273716       -2.1738350937        1.5224214187
 C         -6.1068898129       -0.9590949150        1.1048354228
 H         -6.1774066746       -0.0636094622        1.7016062831
 H         -7.1299689475       -2.2417149097        2.4743141361
 H         -6.9054514772       -4.2382451302        1.0422165294
 H         -5.7585238926       -4.0817610832       -1.1355653397
 H         -4.8277846663       -1.8897278206       -1.8789953304
 H         -2.9067286964        0.6884226803       -1.9125021477
 H         -3.3953034088       -0.6432705464        1.4242991935
 H         -1.6731748884       -0.4633961437        3.1889849870
 H          0.4585953441        0.6896976786        2.7244064186
 C          1.2697218005        1.8614740683        0.4606607543
 H          1.6319969156        2.2692283449        1.4139952495
 C          1.2051675345        2.9843547864       -0.5532825588
 C          0.5116797851        4.2608652395       -0.1846250532
 C          2.0036920491        4.2301983575       -0.3201536537
 H          2.4546210539        4.7191759546       -1.1706997508
 H          2.5992534816        4.2818009293        0.5794195838
 H          0.0921028702        4.3297823581        0.8077981984
 H         -0.0647284882        4.7731320809       -0.9400117961
 H          1.1195978889        2.6388415734       -1.5762278774
 O          3.3903189614        1.0252113557        2.1381791255
