  62
        -98.93465442
 C         -1.4797308420       -1.1290470977        0.8073001109
 C         -2.6771439911       -1.2771745713        0.0692931795
 C         -3.6961367485       -0.2156921469        0.2353693053
 C         -3.4288544634        0.8302142608        1.0377646008
 C         -4.2803009129        2.0409981714        1.3148272898
 C         -4.2813685665        3.0477477686        0.1532157448
 C         -4.4365451012        2.4289903038       -1.2333230094
 H         -4.3171415638        3.2286557021       -1.9689719664
 H         -3.6298142038        1.7128389981       -1.3992027931
 C         -5.7794090166        1.7512635161       -1.4948259579
 H         -5.7889010025        1.4436658562       -2.5436046684
 H         -6.5820228369        2.4790795982       -1.3559163408
 C         -6.0848455678        0.5205314116       -0.6382008833
 H         -6.9326329870        0.0053955756       -1.0994505284
 H         -6.4052438466        0.8051359697        0.3604926911
 C         -4.9499264472       -0.4954986658       -0.5583882278
 H         -5.3498370583       -1.4328068977       -0.1526221813
 H         -4.6178575628       -0.7421203669       -1.5731307861
 H         -5.0822863775        3.7690226184        0.3243954733
 H         -3.3318387328        3.5878533255        0.1725086471
 H         -5.2926060287        1.7362833842        1.5633538347
 H         -3.8552372934        2.5268163418        2.1960924428
 O         -2.2487697700        0.9408744463        1.7146139025
 C         -1.2660821245       -0.0227585501        1.6318803387
 O         -0.2585793552        0.2089949661        2.3314761465
 O         -2.9136801186       -2.2396745031       -0.7046801685
 C         -0.3340511805       -2.1272194084        0.7522846525
 C          0.6007564232       -1.7524836960       -0.3688485143
 C          0.1453292842       -1.6502040265       -1.6808505931
 C          1.0097367639       -1.2797954039       -2.6936393865
 C          2.3337528027       -0.9829724587       -2.4174509100
 C          2.7953496351       -1.0720228733       -1.1102433037
 C          1.9304481684       -1.4679439848       -0.0979537908
 H          2.3041668785       -1.5312604093        0.9129019781
 N          4.1337456615       -0.7744098916       -0.7970929704
 S          4.4569404732        0.2830915258        0.4629525134
 O          5.8439205081        0.6494855351        0.2755657734
 O          4.1290425711       -0.3362649698        1.7201376272
 C          3.4126671172        1.6911249067        0.1362149765
 C          2.1384976889        1.7510443593        0.6622073848
 C          1.3266774438        2.8217200602        0.3191881754
 C          1.7958961590        3.8072341130       -0.5342337067
 C          3.0821066220        3.7348005433       -1.0489468341
 C          3.8965320391        2.6653886418       -0.7169240945
 H          4.9049447838        2.5742604686       -1.0872835417
 H          3.4481938984        4.5056749114       -1.7077517106
 H          1.1571415855        4.6362774282       -0.7955448410
 H          0.3293381074        2.8656153675        0.7291245888
 H          1.7817032489        0.9834731969        1.3311322439
 H          4.6982492610       -0.5361091785       -1.6006650932
 H          3.0055405805       -0.6848331225       -3.2078954943
 H          0.6477647933       -1.2111583862       -3.7082898648
 H         -0.8908789812       -1.8677750390       -1.8914361332
 H          0.2149730390       -1.9867827759        1.6974494780
 C         -0.7950784468       -3.5777673813        0.7094507108
 C         -0.5058645133       -4.5099460480       -0.4252305902
 C          0.2148242234       -4.6749203030        0.8764767691
 H         -0.0304185899       -5.5156956937        1.5076851381
 H          1.2550661788       -4.3852750935        0.9128122667
 H         -1.2710061097       -5.2237408969       -0.6897981759
 H          0.0515413969       -4.1363648068       -1.2693716007
 H         -1.7466810257       -3.7176945343        1.2109922045
