  62
        -98.94162145
 C         -2.1191290735       -0.8232553629        0.2826553661
 C         -2.9699067131       -0.1916679177        1.2251277790
 C         -3.7520797995        0.9502113525        0.7338480203
 C         -3.5708358865        1.3730828933       -0.5302154181
 C         -4.3397480547        2.4853137476       -1.1811258890
 C         -5.5942370842        1.9521375526       -1.8877658814
 C         -6.4441494450        1.0223907193       -1.0214398075
 H         -7.3152104179        0.7332174135       -1.6132339746
 H         -5.8786388705        0.1103476747       -0.8167580646
 C         -6.9088021105        1.6390222314        0.3053910921
 H         -7.9656071240        1.4047921164        0.4491323180
 H         -6.8210175167        2.7251062588        0.2596374553
 C         -6.1666158217        1.1226985387        1.5394578935
 H         -6.1742279331        0.0297145834        1.5409534785
 H         -6.7111592145        1.4544333881        2.4273905278
 C         -4.7150531819        1.5949046415        1.6907690559
 H         -4.6709658438        2.6828080000        1.6070733082
 H         -4.3757503779        1.3130535192        2.6919930941
 H         -6.1961782825        2.8036887603       -2.2100654967
 H         -5.2814505660        1.4007916694       -2.7775809248
 H         -4.6184639773        3.2181427043       -0.4261643207
 H         -3.6928599858        2.9646390023       -1.9180597120
 O         -2.6844867672        0.7969929042       -1.3804260699
 C         -1.9408527171       -0.3171777439       -1.0063776782
 O         -1.1796137653       -0.7341351798       -1.8978442701
 O         -3.0663743813       -0.5641926776        2.4254920873
 C         -1.3230214993       -2.0279644189        0.7530365669
 C          0.1284778156       -1.8682902230        0.3769534629
 C          0.8190792085       -2.7525449459       -0.4399958061
 C          2.1471664340       -2.5216755019       -0.7543065177
 C          2.8143147496       -1.4162402306       -0.2602737332
 C          2.1313177499       -0.5217142058        0.5536115124
 C          0.8032106623       -0.7578111180        0.8703657613
 H          0.2683218811       -0.0556161345        1.4994926319
 N          2.8021055892        0.6016931419        1.0706701279
 S          3.6588799499        1.5765001404        0.0037860991
 O          3.7122072459        2.8727967722        0.6459337201
 O          3.0978580607        1.5413103546       -1.3267636516
 C          5.2916173363        0.8654105944        0.0027524911
 C          5.9443611833        0.7296670209        1.2124274099
 C          7.2166906892        0.1810103815        1.2278741497
 C          7.8127005900       -0.2170711892        0.0403565820
 C          7.1460355246       -0.0696921435       -1.1663179085
 C          5.8723169830        0.4773095503       -1.1886646355
 H          5.3123983403        0.6055222435       -2.1015684471
 H          7.6108266824       -0.3786239115       -2.0888158764
 H          8.8028603744       -0.6444496871        0.0551963139
 H          7.7384288521        0.0651549185        2.1641339800
 H          5.4473519217        1.0550669624        2.1109544788
 H          2.2275671094        1.1692107336        1.6773317121
 H          3.8465330050       -1.2314831866       -0.5088901313
 H          2.6701658250       -3.2126019884       -1.3978299684
 H          0.3106148905       -3.6075046348       -0.8538993079
 H         -1.3912649128       -1.9824481237        1.8533243997
 C         -1.9137198597       -3.3681596086        0.3422477496
 C         -3.3866213231       -3.5210452344        0.1109533656
 C         -2.4324703512       -3.6323228176       -1.0382519427
 H         -2.2645806718       -4.6085156201       -1.4693778703
 H         -2.3860994937       -2.8262476071       -1.7533937923
 H         -3.8731744205       -4.4162244476        0.4680731608
 H         -3.9985250698       -2.6333556169        0.1828258865
 H         -1.4196408530       -4.1956757217        0.8419962189
