  62
        -98.94356412
 C          1.7858529788        1.0066750753       -0.6052479010
 C          1.9597428186        0.0679885172        0.4404378357
 C          3.3434185476       -0.1273823393        0.8923993403
 C          4.3376454173        0.5893352793        0.3376207851
 C          5.7942790029        0.5178485442        0.7085014243
 C          6.5592193116       -0.6196164123        0.0178485875
 C          6.2427852778       -2.0238541145        0.5341076277
 H          6.9994802110       -2.6942569555        0.1216123967
 H          6.3485961092       -2.0426727100        1.6192428032
 C          4.8536468480       -2.5452810019        0.1405371497
 H          4.9402138452       -3.5713069485       -0.2240475078
 H          4.4595460014       -1.9453044972       -0.6828924978
 C          3.8333884447       -2.5527589669        1.2789671504
 H          4.1537336102       -3.2532610956        2.0533378405
 H          2.8781432341       -2.9030801756        0.8803935314
 C          3.6007830529       -1.1813864740        1.9265837007
 H          2.7128819052       -1.2461246971        2.5601395905
 H          4.4544145484       -0.9078260371        2.5463199137
 H          6.3609297500       -0.5723247717       -1.0554352284
 H          7.6251888287       -0.4323963672        0.1668827272
 H          6.2397310412        1.4671049415        0.4029966143
 H          5.8930590531        0.4203105109        1.7900262321
 O          4.1217931576        1.5070346009       -0.6431903834
 C          2.8500520074        1.7254957120       -1.1482404286
 O          2.7970115009        2.5791168613       -2.0576611060
 O          1.0152734712       -0.5715771180        0.9700005029
 C          0.3976099915        1.2623308637       -1.1638963119
 C         -0.5185081656        1.7365147662       -0.0622570539
 C         -0.1074684796        2.7949163454        0.7445600391
 C         -0.9097239167        3.2511238383        1.7717120145
 C         -2.1401903805        2.6656205128        2.0144640009
 C         -2.5629145629        1.6129654695        1.2120951540
 C         -1.7551607896        1.1602743504        0.1769003400
 H         -2.1032792081        0.3513070412       -0.4413927114
 N         -3.7834347701        0.9770842689        1.4613765381
 S         -4.6580305674        0.2143801681        0.2665396827
 O         -4.6601314812        0.9699898954       -0.9646707261
 O         -5.9558298557       -0.0121541005        0.8666538639
 C         -3.8429789477       -1.3500835080        0.0252797275
 C         -3.3331651054       -2.0214819332        1.1182026093
 C         -2.7147616140       -3.2456642801        0.9215285642
 C         -2.6220266776       -3.7777656482       -0.3552626855
 C         -3.1467340419       -3.0951711473       -1.4417423253
 C         -3.7652248730       -1.8698402922       -1.2517171950
 H         -4.1788227253       -1.2989592999       -2.0682823898
 H         -3.0729401655       -3.5109495109       -2.4342037684
 H         -2.1353329493       -4.7287180404       -0.5051332654
 H         -2.3011992821       -3.7772771462        1.7633400103
 H         -3.4130363325       -1.5777142475        2.0964124897
 H         -4.3615865231        1.3882857290        2.1778480887
 H         -2.7651237676        3.0169407301        2.8212518223
 H         -0.5764501392        4.0709848410        2.3903142411
 H          0.8552280731        3.2512406847        0.5560443611
 H          0.5057877066        2.0798582800       -1.8918862412
 C         -0.1051063532        0.0288989377       -1.8849487823
 C         -1.0952924885        0.1576219931       -3.0016051238
 C          0.3266998803       -0.2094748477       -3.2994280642
 H          0.5443725250       -1.2204672588       -3.6090925185
 H          0.9646076962        0.5341341791       -3.7551920465
 H         -1.8539921466       -0.6028201829       -3.1061570944
 H         -1.4328407892        1.1500779285       -3.2601827136
 H         -0.1799575632       -0.8339707724       -1.2325943542
