  62
        -98.94529603
 C         -2.3755919213       -1.0679401001        0.1600639978
 C         -2.0337135204       -0.2733388501       -0.9617142897
 C         -2.6685375340        1.0494614642       -1.0200472217
 C         -3.5116755867        1.4326397261       -0.0440111079
 C         -4.2978413846        2.7156775290       -0.0017844287
 C         -3.5288572224        3.9167814252        0.5635898590
 C         -2.4408786394        4.4771342655       -0.3525973452
 H         -2.8607257943        4.6695555175       -1.3404429178
 H         -2.1313354854        5.4375779012        0.0641965466
 C         -1.2059019144        3.5758244151       -0.4824331558
 H         -1.1889033484        2.8456745130        0.3304156908
 H         -0.2967770471        4.1719484976       -0.3731307095
 C         -1.0900244462        2.8244455957       -1.8081872271
 H         -0.2123106189        2.1769159173       -1.7356437424
 H         -0.9259570313        3.5355786519       -2.6213637720
 C         -2.3045962348        1.9545765732       -2.1572031200
 H         -3.1511182989        2.5842486227       -2.4322915903
 H         -2.0409029729        1.3253803370       -3.0108682365
 H         -3.0845695827        3.6309657718        1.5200385810
 H         -4.2568406089        4.7080092578        0.7575232548
 H         -5.1606842822        2.5271748039        0.6409867777
 H         -4.6560676520        2.9534316545       -1.0039129829
 O         -3.7836720481        0.6521489788        1.0372126876
 C         -3.2048056360       -0.5992603075        1.1768258915
 O         -3.5056963539       -1.1898295868        2.2362573471
 O         -1.2603568785       -0.6570218423       -1.8763320006
 C         -1.7986275938       -2.4655388699        0.3028833137
 C         -0.2913700632       -2.3995129374        0.3078030385
 C          0.5182981428       -3.2162075119       -0.4706114247
 C          1.8961302783       -3.0862941870       -0.4296177069
 C          2.4949131118       -2.1399870286        0.3820234236
 C          1.6935909957       -1.3247813258        1.1700638310
 C          0.3173726056       -1.4651990366        1.1374997901
 H         -0.3018614975       -0.8196572478        1.7505745320
 N          2.3104084388       -0.3205477232        1.9665447618
 S          2.5364739063        1.1053136589        1.0855709994
 O          2.9416772648        2.1006523432        2.0557910882
 O          1.3675148821        1.4276123110        0.2998002938
 C          3.9016637785        0.6944765010        0.0253125919
 C          5.1756669129        0.6939905382        0.5589012711
 C          6.2395674714        0.3353824340       -0.2532708111
 C          6.0102630575       -0.0174179302       -1.5750705503
 C          4.7245201990       -0.0111166676       -2.0947509724
 C          3.6554927775        0.3476544534       -1.2884037984
 H          2.6381668007        0.3607139090       -1.6476496811
 H          4.5472236185       -0.2873473603       -3.1216754122
 H          6.8387956900       -0.2993586515       -2.2054604397
 H          7.2409527559        0.3298952918        0.1460425112
 H          5.3032525448        0.9793111916        1.5899355406
 H          1.7584027315       -0.0868306192        2.7819990950
 H          3.5664095431       -2.0302999557        0.4188884768
 H          2.5107845605       -3.7267285862       -1.0430465725
 H          0.0680641153       -3.9504964022       -1.1181423419
 H         -2.1272947894       -2.8311391426        1.2872275259
 C         -2.3643227277       -3.3730716425       -0.7697520770
 C         -2.5015436298       -4.8440351807       -0.5190882434
 C         -3.7209927246       -3.9744764942       -0.5644731658
 H         -4.3832092408       -4.0541421401       -1.4133616630
 H         -4.2273087232       -3.7486125113        0.3630657275
 H         -2.3305188527       -5.5254688724       -1.3385965270
 H         -2.1838927368       -5.2190504035        0.4420235085
 H         -2.1109347293       -3.0414110470       -1.7700215046
