  62
        -98.93989235
 C         -1.6007241548       -1.4982395563        0.2627960490
 C         -1.3481573678       -0.4059864130       -0.6008648407
 C         -2.1017194997        0.8256617903       -0.3274233033
 C         -2.9217699228        0.8675899689        0.7377874561
 C         -3.7909725592        2.0294098323        1.1275570354
 C         -5.0265345757        2.1061923803        0.2082067199
 C         -5.0763014223        3.3528523734       -0.6750230069
 H         -5.8601838606        3.1964343389       -1.4190008774
 H         -5.3671516381        4.2095153023       -0.0635344714
 C         -3.7711732183        3.7097797836       -1.3922420048
 H         -4.0211819797        4.4411983539       -2.1636775822
 H         -3.0938688980        4.2087789635       -0.6973020317
 C         -3.0261244376        2.5384324190       -2.0446795265
 H         -3.7127802136        1.7205706934       -2.2637156200
 H         -2.6236397033        2.8824279628       -2.9994471852
 C         -1.8363457502        1.9986388964       -1.2297194357
 H         -1.3886478230        2.8052897483       -0.6410967594
 H         -1.0694172728        1.6450474615       -1.9255659939
 H         -5.0415017474        1.2123386002       -0.4186441001
 H         -5.9326464419        2.0800799601        0.8153394256
 H         -3.2108312487        2.9484982450        1.0744701854
 H         -4.0951537255        1.8722305773        2.1629566175
 O         -3.1106465224       -0.1920316584        1.5687101567
 C         -2.4455521369       -1.3894876707        1.3640581592
 O         -2.6825111898       -2.2661266218        2.2227103500
 O         -0.5284431820       -0.4584222824       -1.5550012226
 C         -0.8373728085       -2.7988409760        0.0720449897
 C          0.6396170531       -2.4901142699        0.0966677909
 C          1.5466580323       -2.9509576661       -0.8483719204
 C          2.8683621989       -2.5388215187       -0.8156048525
 C          3.3069579430       -1.6445800257        0.1442256093
 C          2.4128351591       -1.2028083717        1.1095970738
 C          1.1034190202       -1.6469815443        1.0997021722
 H          0.4115022927       -1.2819077645        1.8498473784
 N          2.8414591308       -0.2086606481        2.0407117988
 S          2.3220547499        1.3169333142        1.5211832800
 O          2.8710944104        2.2617207259        2.4722643482
 O          0.8820239185        1.3653917404        1.3735052382
 C          3.1386666810        1.4736509971       -0.0480915627
 C          4.4393635505        1.9394868630       -0.0617229801
 C          5.1111682440        2.0135220067       -1.2708655573
 C          4.4746350990        1.6164811502       -2.4376177627
 C          3.1695426056        1.1501337670       -2.4046266927
 C          2.4888142803        1.0740533598       -1.1989558317
 H          1.4755749829        0.7048380867       -1.1434852875
 H          2.6718331023        0.8355272372       -3.3077982136
 H          4.9983708188        1.6693855095       -3.3791321661
 H          6.1261658852        2.3757985270       -1.2995781120
 H          4.8885102235        2.2362293485        0.8718170514
 H          2.4618554687       -0.3585716193        2.9671651168
 H          4.3215772539       -1.2814127180        0.1555286677
 H          3.5579296143       -2.8978650138       -1.5635977344
 H          1.2117316938       -3.6178655983       -1.6259226811
 H         -1.0819160930       -3.4288597075        0.9397400979
 C         -1.2894120108       -3.5002769526       -1.1912170181
 C         -1.2059726891       -4.9927117013       -1.2974620867
 C         -2.5395192796       -4.3249222049       -1.1524028976
 H         -3.2012705840       -4.2985584374       -2.0049841470
 H         -3.0530164628       -4.4002181863       -0.2046033203
 H         -0.9556629436       -5.4288922011       -2.2525633649
 H         -0.8169650070       -5.5336335948       -0.4481626449
 H         -1.1072260201       -2.9093224364       -2.0812801412
