  62
        -98.94080749
 C          2.5979845896        1.3186114393        0.2273505510
 C          2.4065381497        0.2361321693       -0.6685292391
 C          3.5163239596       -0.7287989808       -0.7545121889
 C          4.6278366395       -0.5341199509       -0.0238720787
 C          5.8036558094       -1.4651985110        0.0216045515
 C          5.6495327291       -2.4950876311        1.1495437514
 C          4.2891534190       -3.1925646409        1.1681741012
 H          4.3067124488       -3.9178291909        1.9845335312
 H          3.5136991290       -2.4605933008        1.4063700211
 C          3.9233556491       -3.9063725708       -0.1407000789
 H          4.8206493692       -4.0642544109       -0.7402943387
 H          3.5160639790       -4.8908022408        0.0991673410
 C          2.8711102694       -3.1854340807       -0.9858410091
 H          2.0015700293       -2.9453906506       -0.3675423192
 H          2.5329165994       -3.8723720607       -1.7666112591
 C          3.3381753596       -1.8995951108       -1.6797271489
 H          4.2562653497       -2.0947821308       -2.2379758788
 H          2.5590091498       -1.6067833007       -2.3900200991
 H          6.4404167690       -3.2402271511        1.0471749716
 H          5.7847550289       -1.9842261411        2.1056108415
 H          5.8978716295       -1.9712658110       -0.9371188385
 H          6.7035613094       -0.8746555311        0.2013837317
 O          4.7839831094        0.5252613290        0.8095909414
 C          3.7710797895        1.4536818891        0.9772689012
 O          4.0317372094        2.3443045191        1.8101421913
 H         -0.6068897601        1.9759633496       -1.1882973196
 C         -0.7701641503        1.5532512996       -0.2092351096
 C          0.2114861995        1.6728457795        0.7603350406
 C         -0.0017022907        1.0849234095        2.0034579105
 C         -1.1732864008        0.4010608396        2.2680132203
 C         -2.1509648407        0.2802431197        1.2957236001
 C         -1.9375140304        0.8446152297        0.0456831802
 N         -2.9167840602        0.7220067299       -0.9526607500
 S         -3.7114494804       -0.7406269300       -1.1524562902
 O         -2.8950120405       -1.8689658901       -0.7706211400
 O         -4.1867961801       -0.7230170400       -2.5191917802
 C         -5.1112825305       -0.6039581399       -0.0573960804
 C         -5.3973254708       -1.6287915799        0.8231121595
 C         -6.4984120009       -1.5100595598        1.6570211993
 C         -7.2913094708       -0.3745909997        1.5951526092
 C         -6.9925559605        0.6448026003        0.7034192293
 C         -5.8941324604        0.5314218202       -0.1336188805
 H         -5.6302936702        1.2997824801       -0.8408054105
 H         -7.6112945404        1.5265657703        0.6583307392
 H         -8.1467054909       -0.2835817197        2.2458074691
 H         -6.7317467411       -2.3021921498        2.3503172193
 H         -4.7489411109       -2.4905884300        0.8408364096
 H         -2.6312051801        1.0993251099       -1.8447655499
 H         -3.0595978708       -0.2657808202        1.4899753100
 H         -1.3269993311       -0.0470597004        3.2380640503
 H          0.7704222391        1.1622425194        2.7571114907
 C          1.5238142197        2.3636001994        0.4880351008
 H          1.8406607596        2.8660282593        1.4158303409
 C          1.4171172600        3.4486025194       -0.5732621292
 C          2.6555197401        4.0346912393       -1.1813360490
 C          1.7221353302        3.2182984494       -2.0214151091
 H          1.1168923604        3.7299249195       -2.7561253892
 H          2.0299411501        2.2303947894       -2.3250188891
 H          2.6972969203        5.1012848393       -1.3422934689
 H          3.6014479900        3.5976402692       -0.8957047288
 H          0.6129107400        4.1442062995       -0.3524685293
 O          1.3779779898        0.0680838494       -1.3741497893
