  62
        -98.94952039
 C         -1.6148912459       -0.8371594742       -0.7076024744
 C         -1.4681568488       -1.6316566053        0.4546385091
 C         -0.4574791341       -2.6971640892        0.3789832101
 C          0.2779847045       -2.8315856621       -0.7389837180
 C          1.3369203691       -3.8746067358       -0.9535569680
 C          2.7306349441       -3.3853435081       -0.5388888596
 C          2.7851469625       -2.7582512410        0.8543571976
 H          3.8291170630       -2.5058249241        1.0571546154
 H          2.2286786775       -1.8180976282        0.8635174219
 C          2.2487250938       -3.6529841294        1.9797660971
 H          2.2295433598       -4.6946160663        1.6552925117
 H          2.9319670644       -3.5885150313        2.8293100296
 C          0.8641557452       -3.2486240295        2.4906666870
 H          0.6925089801       -3.7496676160        3.4475757670
 H          0.8491604268       -2.1704870216        2.6742221838
 C         -0.3138550295       -3.5985645373        1.5720841640
 H         -0.2407506563       -4.6436866546        1.2614434802
 H         -1.2343024700       -3.4750830144        2.1505946647
 H          3.0718425472       -2.6417998101       -1.2632671029
 H          3.4160820197       -4.2344488320       -0.5800817430
 H          1.0734835742       -4.7649308723       -0.3853363113
 H          1.3540582585       -4.1263354962       -2.0157777952
 O          0.1453475036       -2.0136438165       -1.8153886737
 C         -0.7954801922       -0.9949678132       -1.8238881389
 O         -0.8049892574       -0.3125849449       -2.8683008313
 H         -0.2544617936        1.3041866332       -0.2508412088
 C         -0.9800603318        1.6933628095        0.4485091338
 C         -2.3035564859        1.2851605809        0.3441186442
 C         -3.2317593694        1.8090032118        1.2336144700
 C         -2.8284305031        2.6917066529        2.2213956131
 C         -1.5005173234        3.0541004187        2.3533661358
 C         -0.5664884730        2.5451790461        1.4577312500
 N          0.7920227453        2.8858303534        1.5418422395
 S          1.9414503579        1.7260746196        1.1662544237
 O          1.5025323257        0.3968878277        1.5179330496
 O          3.1449647795        2.1900551137        1.8263469137
 C          2.1628819647        1.8782411626       -0.5926304476
 C          2.2990621339        3.1409787856       -1.1345800660
 C          2.4872510521        3.2637456608       -2.5016032524
 C          2.5376766949        2.1298776425       -3.2987093824
 C          2.4071853845        0.8690069343       -2.7386333432
 C          2.2205513894        0.7410618412       -1.3720265545
 H          2.0973285488       -0.2219310497       -0.9014021424
 H          2.4302944745       -0.0142800473       -3.3566359758
 H          2.6758283607        2.2264567043       -4.3640280332
 H          2.5888138471        4.2420347886       -2.9432830124
 H          2.2502402140        3.9979500731       -0.4837425784
 H          1.0492979685        3.4279282316        2.3538493390
 H         -1.1849574416        3.7192379289        3.1427471408
 H         -3.5572505671        3.0883174707        2.9120076291
 H         -4.2667664640        1.5171999531        1.1638709679
 C         -2.6366300814        0.2869410352       -0.7379146813
 H         -2.5119976798        0.7841189765       -1.7112925018
 C         -4.0431044821       -0.2653733234       -0.6462758748
 C         -5.1869677510        0.4795536737       -1.2644998018
 C         -4.6955481212       -0.7910837230       -1.8882810277
 H         -5.3090518236       -1.6762795924       -1.8132870306
 H         -4.1323943825       -0.7271756088       -2.8081133182
 H         -6.1428524442        0.4655034828       -0.7629681946
 H         -4.9650424055        1.4084025150       -1.7676440636
 H         -4.2191778062       -0.8038307806        0.2777088600
 O         -2.1622982965       -1.4784337493        1.4939098552
