  62
        -98.94122877
 C          2.2293645550        0.9351004083       -0.0550774400
 C          2.9331528520        0.3934471317        1.0527610034
 C          3.7728786087       -0.7809860589        0.7879938054
 C          3.8050876331       -1.2954814150       -0.4543262235
 C          4.6533504440       -2.4571290761       -0.8820940550
 C          6.0184566676       -1.9865407187       -1.4034824105
 C          6.7261601220       -0.9981258448       -0.4765766104
 H          7.6904320612       -0.7602043763       -0.9307137659
 H          6.1505391668       -0.0704422518       -0.4391394347
 C          6.9469095291       -1.5141199439        0.9522163659
 H          6.8476545890       -2.5999461968        0.9734139064
 H          7.9681976423       -1.2758153017        1.2564643970
 C          6.0158002729       -0.9002354916        1.9994662746
 H          6.3969980692       -1.1637725010        2.9895537932
 H          6.0409133683        0.1893423037        1.9185975396
 C          4.5514593291       -1.3534397180        1.9388703040
 H          4.5029831882       -2.4443761019        1.9309163465
 H          4.0536456400       -0.9944575001        2.8443856439
 H          5.8706043616       -1.5027321196       -2.3717734504
 H          6.6504353630       -2.8634634122       -1.5548264599
 H          4.7869081071       -3.1313068721       -0.0381769917
 H          4.1317779179       -2.9885386574       -1.6801209133
 O          3.0918019279       -0.7755627801       -1.4834360842
 C          2.2930751172        0.3507186300       -1.3201052707
 O          1.7141860702        0.7009610883       -2.3664554517
 H         -0.2842051542        0.7153941520       -1.3218587034
 C         -0.7588893260        1.0299422318       -0.4036370436
 C         -0.0403812450        1.7987918451        0.5024776045
 C         -0.6611669988        2.1856642154        1.6838709664
 C         -1.9689309496        1.8148406020        1.9459064744
 C         -2.6834823362        1.0562387058        1.0362568867
 C         -2.0695983795        0.6584026296       -0.1444218545
 N         -2.7882902735       -0.1097482087       -1.0805999091
 S         -3.4724019512       -1.5425914480       -0.5278239934
 O         -2.7340252977       -2.0818187282        0.5916757949
 O         -3.5846927308       -2.3900284006       -1.6948643327
 C         -5.1041489574       -1.0542184819       -0.0079939426
 C         -5.5133071218       -1.2853265103        1.2907122489
 C         -6.7890913985       -0.8971563360        1.6699510017
 C         -7.6279995927       -0.2888753569        0.7487472600
 C         -7.2026613266       -0.0665999321       -0.5526908337
 C         -5.9291938165       -0.4531968853       -0.9385967133
 H         -5.5605627686       -0.3034296124       -1.9396515753
 H         -7.8579032659        0.4063111293       -1.2663504332
 H         -8.6195291072        0.0132976266        1.0468520333
 H         -7.1216400342       -1.0696480038        2.6809241691
 H         -4.8237176284       -1.7562937066        1.9731762373
 H         -2.2677395475       -0.2796265949       -1.9301536259
 H         -3.7019234437        0.7646261500        1.2343598160
 H         -2.4375216416        2.1198026168        2.8690109930
 H         -0.1054292408        2.7653010632        2.4062697118
 C          1.3910318652        2.1736839093        0.2154803388
 H          1.8123525521        2.5916652480        1.1433261254
 C          1.5316478848        3.2377245144       -0.8654296959
 C          0.4164844763        3.6677128238       -1.7664572857
 C          0.8883827351        4.5801392914       -0.6771645648
 H          1.4464662892        5.4648827253       -0.9430994605
 H          0.2454213188        4.7021244152        0.1815300415
 H          0.6668700120        3.9024284685       -2.7898742204
 H         -0.5467232787        3.1960625494       -1.6537169053
 H          2.5233891324        3.2329340141       -1.3068197842
 O          2.8671732322        0.8820998516        2.2122845968
