  62
        -98.93578526
 C         -0.3560045796       -2.0257440286       -0.5048503364
 C         -0.9668431110       -0.8275180869       -0.9445126581
 C         -2.3256391789       -0.5532215372       -0.4265751449
 C         -2.8694273824       -1.3864120983        0.4760656380
 C         -4.2016482851       -1.2875151112        1.1764978128
 C         -5.4143851554       -0.9064152976        0.3133665462
 C         -5.9418816932        0.5014466436        0.5949395027
 H         -6.9928841253        0.5460737334        0.3006226472
 H         -5.8973100225        0.6789798357        1.6715968820
 C         -5.2114152868        1.6283822642       -0.1328908767
 H         -5.4640697090        1.5947138356       -1.1948257260
 H         -5.5891147362        2.5744149690        0.2622997212
 C         -3.6865948358        1.6180933099       -0.0024716960
 H         -3.3865944829        1.3747291771        1.0173256794
 H         -3.3330216131        2.6323271910       -0.2025516652
 C         -2.9905061806        0.6721146430       -0.9926037475
 H         -2.1849223817        1.2046574077       -1.5067941552
 H         -3.6971269193        0.3620100178       -1.7679232314
 H         -6.2142366620       -1.6150645635        0.5344030576
 H         -5.1682430241       -1.0166388215       -0.7414183203
 H         -4.3593503708       -2.2717008136        1.6240297020
 H         -4.0987362496       -0.5828756705        2.0061222292
 O         -2.2125093247       -2.4942229239        0.9274569078
 C         -0.9642962813       -2.8417074898        0.4500144614
 O         -0.5041093355       -3.8951296379        0.9378487750
 O         -0.4299296056       -0.0104685094       -1.7347718916
 C          1.0250851949       -2.4814210638       -0.9513862252
 C          2.0642998968       -1.9643828267        0.0092903946
 C          3.0412119710       -2.7957085826        0.5431697554
 C          3.9621482850       -2.3007323795        1.4501709352
 C          3.9181450854       -0.9768253939        1.8488082464
 C          2.9450027145       -0.1374224152        1.3172260418
 C          2.0389839582       -0.6309741559        0.3918198638
 H          1.2842042566        0.0219642634       -0.0147908996
 N          2.8782106695        1.2147322371        1.6768176729
 S          1.4147512292        2.0247752815        1.6606629484
 O          1.6510699629        3.1953254494        2.4832015941
 O          0.3237343645        1.1783630509        2.0898438563
 C          1.1904953368        2.5560108039       -0.0226658276
 C          2.2661479373        2.6321631078       -0.8834313385
 C          2.0546779541        3.0836792552       -2.1759862989
 C          0.7839525732        3.4603617921       -2.5798870951
 C         -0.2830686422        3.3877239197       -1.6995366620
 C         -0.0801817852        2.9291725424       -0.4085197694
 H         -0.8846255171        2.8348439689        0.3039253779
 H         -1.2727043934        3.6771715069       -2.0167215750
 H          0.6216291881        3.8063689323       -3.5886014094
 H          2.8822615940        3.1347831611       -2.8653700025
 H          3.2419040754        2.3264216457       -0.5434330930
 H          3.4733873626        1.4992429141        2.4402172852
 H          4.6246006540       -0.5949645319        2.5698759398
 H          4.7141879278       -2.9559218405        1.8629193179
 H          3.0617385358       -3.8381510271        0.2612110377
 H          1.0125037528       -3.5800074061       -0.8627043375
 C          1.3369642413       -2.1461119718       -2.4026520614
 C          2.2817031411       -1.0620211160       -2.8156487678
 C          2.6765874558       -2.4970039467       -2.9802357333
 H          2.7164239077       -2.9151408255       -3.9746164159
 H          3.4205186036       -2.8906218010       -2.3040761561
 H          2.0236985501       -0.4854850438       -3.6901965823
 H          2.7612750608       -0.4833303901       -2.0422086321
 H          0.4748749759       -2.3004702044       -3.0431129099
