  62
        -98.94825073
 C          1.1811337690        1.2152905693       -0.0203627544
 C          1.9182733142        0.6514871540        1.0477281761
 C          2.5535730911       -0.6451795701        0.7772705621
 C          2.3935767477       -1.2170141781       -0.4301609282
 C          3.0222232790       -2.5117635909       -0.8554280022
 C          4.3863458724       -2.2762642318       -1.5190188238
 C          5.3130666251       -1.3626956682       -0.7170865147
 H          6.2554473281       -1.2932534413       -1.2644960076
 H          4.8845686009       -0.3584067686       -0.6851194514
 C          5.5891359926       -1.8391084862        0.7158247599
 H          6.6577429991       -1.7415723958        0.9184263990
 H          5.3366589882       -2.8958269723        0.8110820878
 C          4.8574914770       -1.0456437561        1.8002045380
 H          5.0331912913        0.0232786530        1.6545864835
 H          5.2848518001       -1.3179628957        2.7690216198
 C          3.3432898187       -1.2759106795        1.8889217524
 H          3.1345713320       -2.3464784131        1.9504912327
 H          2.9870675651       -0.8081283206        2.8119628579
 H          4.2213952251       -1.8214617129       -2.4982721817
 H          4.8679374617       -3.2440193526       -1.6697076077
 H          2.3586384028       -3.0004249442       -1.5708427366
 H          3.1346340904       -3.1561549088        0.0144949681
 O          1.6674526072       -0.6515685552       -1.4274126527
 C          1.0325653459        0.5716160538       -1.2480279951
 O          0.3847801375        0.9614845581       -2.2359674918
 O          2.0395281440        1.2072509656        2.1736332140
 C          0.4847304366        2.5474231909        0.1872839451
 C         -1.0077674826        2.3760667637        0.0424572312
 C         -1.7954923985        3.1784724582       -0.7722234970
 C         -3.1611184099        2.9674548712       -0.8522160128
 C         -3.7661976975        1.9592124724       -0.1258482562
 C         -2.9889099561        1.1571734741        0.7031437087
 C         -1.6224998450        1.3720534899        0.7825071235
 H         -1.0281673239        0.7476414243        1.4342906390
 N         -3.5841946727        0.1465057320        1.4795194678
 S         -2.9153848104       -1.3831178063        1.5323307057
 O         -3.9525572651       -2.2035748855        2.1198322887
 O         -1.6537820807       -1.3585370534        2.2270159038
 C         -2.6835714927       -1.8375956048       -0.1740301973
 C         -1.4293204707       -1.7365280355       -0.7370034394
 C         -1.2704972866       -2.0304258749       -2.0816887628
 C         -2.3672081091       -2.4179456275       -2.8352602473
 C         -3.6219098947       -2.5229495525       -2.2532798941
 C         -3.7859646306       -2.2261585214       -0.9105243497
 H         -4.7412442707       -2.3054550006       -0.4173258343
 H         -4.4702251284       -2.8302146945       -2.8434118296
 H         -2.2396857444       -2.6398898396       -3.8829893537
 H         -0.2955111011       -1.9315552420       -2.5317777060
 H         -0.6009814571       -1.4302841626       -0.1167742776
 H         -4.5871356907        0.0857811774        1.3748340417
 H         -4.8309823596        1.7949558658       -0.1902677010
 H         -3.7612243323        3.5946865302       -1.4934547702
 H         -1.3408403404        3.9674178620       -1.3478294571
 H          0.6918193211        2.8239357361        1.2322505205
 C          1.0733215967        3.6050873008       -0.7224391834
 C          1.0396062169        5.0485464609       -0.3209265461
 C          2.3353274858        4.2962753329       -0.3046105732
 H          3.0745511529        4.5213256010       -1.0587384208
 H          2.7577163202        4.0221175943        0.6513953792
 H          0.8920110851        5.7943307755       -1.0872704549
 H          0.5845429220        5.2929010630        0.6270118644
 H          0.9630065964        3.3606067311       -1.7727398465
