  62
        -98.93750640
 C          2.3451957481        0.5926276601        0.0652875353
 C          3.4176558459        0.4471701339        0.9752038001
 C          4.4213042979       -0.5828427470        0.6559204214
 C          4.2710809163       -1.3274902664       -0.4556006166
 C          5.1003330075       -2.4663379942       -1.0119367118
 C          6.5042260999       -2.7439668757       -0.4808064166
 C          7.5361552020       -1.6641912272       -0.8052483001
 H          7.7319455505       -1.6830022542       -1.8803634828
 H          8.4674669484       -1.9166611443       -0.2935626608
 C          7.1371079422       -0.2376944288       -0.4357483100
 H          6.2610738260        0.0603238588       -1.0154603838
 H          7.9563407623        0.4248684272       -0.7280985002
 C          6.8549696251       -0.0003549784        1.0464358639
 H          6.7391443508        1.0772907327        1.1906007340
 H          7.7106809414       -0.3264962986        1.6407797107
 C          5.5883316952       -0.6788490690        1.5961387261
 H          5.2915613895       -0.1511166533        2.5072684271
 H          5.7798546071       -1.7142662005        1.8671652891
 H          6.8379587052       -3.6709690052       -0.9550474418
 H          6.4723333112       -2.9322442727        0.5882287021
 H          5.1542034893       -2.2942473013       -2.0916390176
 H          4.4936563270       -3.3682486968       -0.8748054725
 O          3.2060681016       -1.1623251698       -1.2942222709
 C          2.2277256093       -0.2082701866       -1.0687064018
 O          1.3352069188       -0.1765455874       -1.9366952076
 O          3.5307438799        1.1441046254        2.0193936045
 C          1.2865699108        1.6452089134        0.3439768476
 C         -0.0419373666        0.9661540001        0.5654029332
 C         -0.1901542651        0.1435677556        1.6798545618
 C         -1.3805591678       -0.5141554045        1.9197280038
 C         -2.4492267822       -0.3723934047        1.0508206356
 C         -2.3135068158        0.4458385173       -0.0612869216
 C         -1.1176980793        1.1153096027       -0.2940571375
 H         -1.0275047808        1.7433762784       -1.1664175079
 N         -3.3867431507        0.5797957619       -0.9563913229
 S         -4.9176301526        0.8970246115       -0.3540238009
 O         -5.6282526163        1.5293006105       -1.4440664705
 O         -4.8568959863        1.6361921214        0.8857106048
 C         -5.6135977264       -0.7166646424       -0.0682767412
 C         -6.1479554188       -1.0262483820        1.1670492076
 C         -6.6988387156       -2.2830906366        1.3633190198
 C         -6.7064756008       -3.2025773173        0.3257646785
 C         -6.1670409430       -2.8754600907       -0.9095109428
 C         -5.6157530986       -1.6205068032       -1.1124954423
 H         -5.1884333669       -1.3278235220       -2.0571552043
 H         -6.1737319476       -3.5936108398       -1.7136366490
 H         -7.1349436672       -4.1802470285        0.4804142390
 H         -7.1182485036       -2.5394724928        2.3229551438
 H         -6.1146316129       -0.2813618589        1.9461360347
 H         -3.1815322168        1.1506739003       -1.7631288333
 H         -3.3797607518       -0.8861459701        1.2289561544
 H         -1.4793708307       -1.1468840080        2.7887389528
 H          0.6470533856        0.0277990939        2.3546321264
 H          1.5875510782        2.1165238880        1.2904935944
 C          1.2721635953        2.7005768959       -0.7409852373
 C          0.6594576717        4.0407396266       -0.4673249532
 C          2.1467682533        3.9079025235       -0.5939461180
 H          2.6275298253        4.3064228089       -1.4747654377
 H          2.7460484303        3.9822903120        0.3015755793
 H          0.1189367892        4.5345922901       -1.2608957053
 H          0.2451594108        4.2079128348        0.5155394677
 H          1.1662283865        2.2830788942       -1.7359066000
