  62
        -98.94060428
 C          2.0698793956        0.9645923069        0.2590080527
 C          1.9271452130       -0.0432616757       -0.7270674630
 C          2.1656909755       -1.4231461694       -0.2738651834
 C          2.4741666409       -1.6596906787        1.0128314313
 C          2.7878444540       -3.0093790667        1.5898003874
 C          4.2897424028       -3.3173424255        1.5050324017
 C          4.8959192020       -3.0677984046        0.1240495819
 H          4.8527072805       -1.9986427150       -0.0953586594
 H          5.9510815928       -3.3439430545        0.1775858887
 C          4.2213933586       -3.8443191136       -1.0153540974
 H          4.9959289304       -4.2770880372       -1.6518885139
 H          3.6376514624       -4.6697506587       -0.6064925438
 C          3.3267189387       -2.9934684044       -1.9188590337
 H          3.8789918066       -2.1148548743       -2.2614121452
 H          3.0717182211       -3.5851315740       -2.8020689571
 C          2.0101577852       -2.5177570186       -1.2918104492
 H          1.3868259682       -2.0984226573       -2.0878038396
 H          1.4757838244       -3.3672200323       -0.8600945976
 H          4.8122064407       -2.6858749417        2.2271769848
 H          4.4439718190       -4.3597477919        1.7894511049
 H          2.4817291454       -3.0126598567        2.6373365674
 H          2.2178848432       -3.7663981889        1.0542672927
 O          2.5885170215       -0.6710548922        1.9359441640
 C          2.3763803194        0.6499710890        1.5856247821
 O          2.5028909506        1.4537841019        2.5331548201
 O          1.6211258572        0.1702372324       -1.9307230426
 C          1.8097191668        2.4405025865        0.0045175882
 C          0.3494915015        2.7641633500        0.2258426204
 C         -0.0287296383        3.9189677456        0.9016361139
 C         -1.3644719883        4.1966066881        1.1293465499
 C         -2.3464490875        3.3160146652        0.7128301815
 C         -1.9782767293        2.1615566780        0.0317199606
 C         -0.6403648560        1.9066945944       -0.2292666754
 H         -0.3811755552        1.0100362562       -0.7705925603
 N         -2.9399599331        1.2358980138       -0.4042845027
 S         -2.5427782287       -0.4055723136       -0.2818539391
 O         -1.7672975953       -0.6399868733        0.9159551513
 O         -1.9634789854       -0.8400880770       -1.5269827013
 C         -4.1716346081       -1.1151124369       -0.1108495788
 C         -4.9263017199       -1.3319702706       -1.2484875654
 C         -6.2053164793       -1.8487925341       -1.1155401042
 C         -6.7061689736       -2.1377605457        0.1452787964
 C         -5.9367073814       -1.9163186338        1.2775818760
 C         -4.6572111267       -1.3980045586        1.1517229467
 H         -4.0187547400       -1.2161661500        2.0015725849
 H         -6.3268844940       -2.1448159623        2.2562389411
 H         -7.7014190116       -2.5407224186        0.2462223798
 H         -6.8051056897       -2.0247932126       -1.9938081514
 H         -4.4896531468       -1.1009697060       -2.2061347928
 H         -3.8632730885        1.4243444661       -0.0373232326
 H         -3.3877025397        3.5166228737        0.9144629888
 H         -1.6433635537        5.0961748519        1.6566210443
 H          0.7339055370        4.5900315438        1.2676219380
 H          2.3858592693        2.9834907493        0.7677323590
 C          2.2524339609        2.9264414544       -1.3618379473
 C          2.6379796864        4.3628922896       -1.5408926255
 C          3.6876653077        3.2940353112       -1.5825635695
 H          4.1409165100        3.0446520467       -2.5299562655
 H          4.3591342080        3.2053469684       -0.7405946444
 H          2.3678061024        4.8542785855       -2.4627625370
 H          2.6069638697        5.0048103414       -0.6738444296
 H          1.7336214580        2.4367763634       -2.1754569875
