  62
        -98.94947471
 C         -1.0179759660       -1.7388213957        0.1014739004
 C         -1.6707673046       -0.9847255252        1.1049611552
 C         -2.8484613094       -0.2240445465        0.6731920255
 C         -3.2309862303       -0.2637635859       -0.6160998876
 C         -4.4097549932        0.4572308149       -1.2112717271
 C         -4.1234708296        1.9227270044       -1.5673034910
 C         -4.0469835035        2.8794358354       -0.3766238622
 H         -4.0882624895        3.8933631812       -0.7797274844
 H         -4.9243562924        2.7432804053        0.2572145292
 C         -2.7712503043        2.7406184945        0.4655988949
 H         -2.3742006191        3.7347637959        0.6873457511
 H         -2.0049821258        2.2264258381       -0.1208608386
 C         -2.9683813719        2.0250460825        1.8024088962
 H         -3.6227682158        2.6242326963        2.4401156521
 H         -1.9969814171        1.9506865207        2.2972971983
 C         -3.5606146716        0.6142043431        1.6927575237
 H         -3.4464331630        0.1211643831        2.6617026835
 H         -4.6225606547        0.6730183653        1.4543020109
 H         -4.9255201611        2.2609887950       -2.2279371675
 H         -3.1861260883        1.9712285716       -2.1278699255
 H         -5.2583054795        0.4056822794       -0.5278581874
 H         -4.6683784992       -0.0763155896       -2.1285310382
 O         -2.5818903329       -1.0065794493       -1.5511455503
 C         -1.4558526441       -1.7492119054       -1.2234698197
 O         -0.9539460622       -2.3685720809       -2.1810777281
 O         -1.2882615984       -0.9493446483        2.3059748173
 C          0.2267059417       -2.5212082484        0.4675922115
 C          1.4410158242       -2.0347508380       -0.2889685524
 C          2.5618759417       -2.8349998610       -0.4851349218
 C          3.6682566637       -2.3395762179       -1.1523031275
 C          3.6941459183       -1.0387407721       -1.6233274766
 C          2.5795836244       -0.2308208730       -1.4325696166
 C          1.4721414913       -0.7347475717       -0.7691668418
 H          0.6038832475       -0.1061027222       -0.6602358422
 N          2.5475069597        1.0891693288       -1.9008882579
 S          1.6367637451        2.2503551334       -1.1214469233
 O          0.2314941675        2.0486601420       -1.3713921301
 O          2.1876687576        3.5027467864       -1.5943674330
 C          2.0151988880        2.0413241917        0.6085648631
 C          1.0622869494        1.5575716010        1.4795701266
 C          1.4066482209        1.3403881933        2.8039592950
 C          2.6939262826        1.6183024231        3.2351114359
 C          3.6387572679        2.1199572765        2.3518805531
 C          3.3007815517        2.3292837566        1.0252426868
 H          4.0060212066        2.7221471670        0.3110609543
 H          4.6373961267        2.3411836923        2.6924825003
 H          2.9603220415        1.4433389278        4.2655010619
 H          0.6652058606        0.9365097443        3.4756041932
 H          0.0684741553        1.3453060021        1.1187390728
 H          3.4188621436        1.4499458394       -2.2580757027
 H          4.5581448255       -0.6555449403       -2.1437249072
 H          4.5278227719       -2.9744675075       -1.3040455395
 H          2.5632549420       -3.8497087844       -0.1215372538
 H          0.3945710084       -2.3159876314        1.5366754618
 C         -0.0065046574       -4.0100646879        0.2927872670
 C          0.5804284343       -4.9959553687        1.2573362986
 C         -0.8921168394       -4.7212010109        1.2707541526
 H         -1.5670326902       -5.4780759424        0.9003545638
 H         -1.2965451178       -4.1371777046        2.0846986957
 H          0.9182284358       -5.9485714126        0.8777421583
 H          1.1695198570       -4.6093852734        2.0753166748
 H         -0.0840196731       -4.2960945894       -0.7501623136
