  62
        -98.94609748
 C          1.0027686213        1.6314162288        0.6296304932
 C          1.7795625567        1.5306032555       -0.5494092869
 C          2.8852043178        0.5631921519       -0.5050824510
 C          3.0825550046       -0.1635882750        0.6098289468
 C          4.1710576961       -1.1823390426        0.7842412626
 C          3.7050008427       -2.5871971610        0.3803651151
 C          2.9914140884       -2.6379759063       -0.9700233130
 H          2.7265047980       -3.6797676090       -1.1594997876
 H          2.0561282047       -2.0771688525       -0.9017015382
 C          3.8220855195       -2.1042753302       -2.1454668055
 H          4.8784030425       -2.0848406890       -1.8744024057
 H          3.7163402693       -2.7903221748       -2.9883394362
 C          3.4043240949       -0.7203248040       -2.6456229457
 H          2.3263514401       -0.7041259208       -2.8261403131
 H          3.8991350432       -0.5420217033       -3.6041606590
 C          3.7554471734        0.4555113147       -1.7253274285
 H          4.8099600250        0.4034765912       -1.4464110641
 H          3.5943792243        1.3790099332       -2.2891886362
 H          4.5751095377       -3.2457829849        0.3597452891
 H          3.0169451895       -2.9512323894        1.1444964723
 H          5.0301125912       -0.8861974625        0.1850056949
 H          4.4626414123       -1.1937959207        1.8359416687
 O          2.2857616693       -0.0709027345        1.7058985603
 C          1.2272906269        0.8222536984        1.7425027738
 O          0.5716569344        0.8005577019        2.8047733364
 H         -1.2832038748        0.2758256712        0.3125465919
 C         -1.6600126082        1.0003276222       -0.3945525903
 C         -1.1689379191        2.2999857597       -0.3587993051
 C         -1.6593395443        3.2219506494       -1.2732660836
 C         -2.6117782442        2.8424205749       -2.2035467739
 C         -3.1140207185        1.5547793055       -2.2203684239
 C         -2.6373713292        0.6261338474       -1.3009057885
 N         -3.1270617340       -0.6883462831       -1.2822095620
 S         -3.3906282789       -1.4687756908        0.1772438798
 O         -4.4564452011       -2.4070327761       -0.1078718603
 O         -3.6388334457       -0.5295747947        1.2445324857
 C         -1.9014495588       -2.3977571122        0.4712377491
 C         -1.6202753684       -3.4399036445       -0.3914982228
 C         -0.5001048155       -4.2197446451       -0.1596814425
 C          0.3176056729       -3.9466668721        0.9267701053
 C          0.0295594217       -2.8904603822        1.7765576763
 C         -1.0928235068       -2.1082724203        1.5513208454
 H         -1.3400906299       -1.2811261444        2.2001868245
 H          0.6683302736       -2.6596000403        2.6150483023
 H          1.1816926096       -4.5644313710        1.1144674385
 H         -0.2688892347       -5.0393652747       -0.8205641755
 H         -2.2911421949       -3.6281949793       -1.2130860748
 H         -3.8711969980       -0.8709174858       -1.9397950441
 H         -3.8677731191        1.2654858114       -2.9369748323
 H         -2.9776375619        3.5646012431       -2.9176793143
 H         -1.2926211328        4.2349585149       -1.2640601074
 C         -0.1400266223        2.6282808105        0.6958695640
 H         -0.6159222098        2.4833198868        1.6775497818
 C          0.3904100124        4.0443313892        0.6160882170
 C         -0.3775572065        5.1705966025        1.2377317344
 C          0.8987257374        4.6975935659        1.8645895731
 H          1.7724127039        5.3283795197        1.7981861712
 H          0.8400880222        4.1287110292        2.7814767824
 H         -0.3790532170        6.1302723247        0.7433431622
 H         -1.3056332822        4.9282465471        1.7335834949
 H          0.9305534009        4.2367869458       -0.3035171255
 O          1.5721011949        2.2211347800       -1.5808782476
