  62
        -98.94122335
 C         -1.5363540756       -1.6195885287       -0.2203915989
 C         -2.6788045720       -1.2622253333        0.5394180205
 C         -3.4801173847       -0.1352286486        0.0391936905
 C         -3.1014608010        0.4983994897       -1.0860486445
 C         -3.7549939757        1.6440232670       -1.8276228540
 C         -4.6459189084        2.6384356392       -1.0839865307
 C         -3.9647097172        3.4038141319        0.0479387969
 H         -3.1710746115        4.0253478042       -0.3741759362
 H         -4.7079358710        4.0706797939        0.4912209939
 C         -3.3543890773        2.5436743894        1.1538191559
 H         -3.0222535003        3.2131430276        1.9518337399
 H         -2.4674079888        2.0287661875        0.7791658205
 C         -4.2955849932        1.5121865438        1.7770759239
 H         -3.8058197160        1.1302294673        2.6762799425
 H         -5.2243308779        1.9970813493        2.0830466381
 C         -4.6377181026        0.2978594347        0.8894993949
 H         -4.8760890415       -0.5447218341        1.5443555670
 H         -5.5114488216        0.4880310559        0.2697260324
 H         -4.9765045725        3.3698132948       -1.8267259998
 H         -5.5379375345        2.1441077395       -0.7102999124
 H         -4.3442178578        1.1936683537       -2.6343858104
 H         -2.9375922882        2.1893571249       -2.3090669836
 O         -2.0049029932        0.1076722507       -1.7949635816
 C         -1.1879909889       -0.9342764566       -1.3824367940
 O         -0.2146176256       -1.1309665705       -2.1355489018
 O         -3.0184332651       -1.8640433763        1.5919179107
 C         -0.6464902903       -2.7293152457        0.3181086658
 C          0.6029859704       -2.0652787922        0.8405972195
 C          0.6272160005       -1.5638599127        2.1391404701
 C          1.7151446602       -0.8453767794        2.5998284986
 C          2.7898373015       -0.5864890634        1.7665373547
 C          2.7669382370       -1.0725427604        0.4662756628
 C          1.6944190995       -1.8304783682        0.0183854941
 H          1.6890322102       -2.1910397793       -0.9977613473
 N          3.8206452562       -0.7515077326       -0.4108444945
 S          4.2428327422        0.8685887604       -0.4722480884
 O          4.7033772495        1.0999998905       -1.8238658060
 O          5.2057291679        1.1460038725        0.5660584521
 C          2.7485361229        1.7955924082       -0.1517861630
 C          1.6279672039        1.5526932458       -0.9209999219
 C          0.4752143463        2.2793468197       -0.6697419040
 C          0.4588579324        3.2317969116        0.3367968406
 C          1.5936421636        3.4663734506        1.0975250521
 C          2.7491043344        2.7422980509        0.8531511154
 H          3.6517209118        2.8877580448        1.4242168277
 H          1.5793774616        4.2074550283        1.8803116351
 H         -0.4438210955        3.7905082359        0.5289547571
 H         -0.4053281360        2.0836483680       -1.2614822002
 H          1.6429333230        0.8002065470       -1.6942064697
 H          3.6807223369       -1.1127852338       -1.3439742422
 H          3.6375535906       -0.0082285456        2.0973120225
 H          1.7221772556       -0.4696207074        3.6114870788
 H         -0.2289264111       -1.7286987165        2.7777631068
 H         -1.1932054728       -3.1559804502        1.1689517597
 C         -0.3877509074       -3.8240894312       -0.6942494224
 C          0.2004074638       -5.1217751101       -0.2292218488
 C         -1.2315280566       -5.0617862142       -0.6662952124
 H         -1.5047708504       -5.5193009946       -1.6054035893
 H         -1.9998804773       -5.1271516886        0.0900082941
 H          0.9129925529       -5.6237521457       -0.8657051212
 H          0.4046412199       -5.2250175890        0.8257693180
 H         -0.0917319898       -3.4551723987       -1.6682555820
