  62
        -98.94071685
 C          1.1666764771        1.3288405070        0.0325543545
 C          1.7803844599        0.6094225719        1.0830523735
 C          2.6166594838       -0.5414766368        0.7006854449
 C          2.7359127571       -0.8642666444       -0.6007836574
 C          3.5157972223       -1.9667232887       -1.2877940140
 C          4.5654995756       -2.7741603797       -0.5283436625
 C          5.8130587619       -1.9865601258       -0.1292483289
 H          6.4412450709       -2.6311938836        0.4894761038
 H          6.3757625789       -1.7454102352       -1.0346333583
 C          5.5582500936       -0.6784776183        0.6154686452
 H          6.5281655431       -0.2208703855        0.8286089144
 H          5.0124310216        0.0123078441       -0.0303193463
 C          4.8094889817       -0.8158051330        1.9395397202
 H          5.3258783959       -1.5314396112        2.5824167744
 H          4.8363316544        0.1582061210        2.4357010723
 C          3.3338337673       -1.2350260749        1.8231417312
 H          2.8257487324       -0.9350097474        2.7444514597
 H          3.2362044335       -2.3144840410        1.7350261627
 H          4.1216604751       -3.2505138037        0.3409199987
 H          4.8853758780       -3.5767319429       -1.1985600518
 H          2.7703397267       -2.6633174073       -1.6854239895
 H          3.9892048375       -1.4966795391       -2.1557040504
 O          2.0629239103       -0.1838698790       -1.5727172729
 C          1.2595799596        0.9091796732       -1.2937426950
 O          0.7056958264        1.4022146190       -2.2917960035
 O          1.6347274169        0.9126748953        2.2993099600
 C          0.3285148050        2.5493374639        0.3767500183
 C         -1.1246959394        2.2063362970        0.1661141288
 C         -1.9284174165        2.7838792698       -0.8065222142
 C         -3.2398445193        2.3678502776       -0.9680667345
 C         -3.7758312533        1.3768472693       -0.1662098729
 C         -2.9790495490        0.7972926939        0.8130358836
 C         -1.6679518667        1.2122822175        0.9724739242
 H         -1.0446862275        0.7546428464        1.7304477855
 N         -3.5094236272       -0.2367545075        1.6194238455
 S         -3.9027107161       -1.6309308801        0.7743846863
 O         -5.1146431165       -1.4011882866        0.0309157591
 O         -3.9495324979       -2.6868462211        1.7600407387
 C         -2.5334648393       -1.8729504631       -0.3422659941
 C         -2.6205962901       -1.4056161591       -1.6378448962
 C         -1.5214382684       -1.5349509076       -2.4706413898
 C         -0.3609398608       -2.1252329998       -1.9963159753
 C         -0.2869861468       -2.5844105861       -0.6902995214
 C         -1.3807798150       -2.4519736827        0.1488242202
 H         -1.3609221333       -2.8015027131        1.1690380443
 H          0.6196313333       -3.0356468180       -0.3188428753
 H          0.4926900810       -2.2143562612       -2.6497161605
 H         -1.5656341511       -1.1660837936       -3.4824581205
 H         -3.5418872504       -0.9569112628       -1.9710978941
 H         -2.8997585023       -0.4787292112        2.3887757393
 H         -4.7895992437        1.0313557600       -0.2890797244
 H         -3.8525277041        2.8216716558       -1.7320789727
 H         -1.5254231407        3.5498653990       -1.4477578137
 H          0.4817727398        2.7116841847        1.4533272569
 C          0.7909023122        3.7794074880       -0.3722199983
 C          0.4191914065        5.1381947473        0.1390789158
 C          1.8350535096        4.6592148095        0.2445707211
 H          2.5801675557        5.1027479564       -0.3986878824
 H          2.2104765501        4.3828454749        1.2192162344
 H          0.1918192475        5.9149428910       -0.5749620398
 H         -0.1682442553        5.1866955173        1.0434935511
 H          0.8368909095        3.6321343702       -1.4443607207
