  62
        -98.93419713
 C          2.5781246083        1.3515097233       -0.0770370313
 C          2.4720274006        0.1180563595       -0.7575110166
 C          3.7094240877       -0.6795164794       -0.8829693089
 C          4.8521844864       -0.1900000186       -0.3665616382
 C          6.2134499820       -0.8325454958       -0.3412484132
 C          6.3246895097       -1.9381725289        0.7213362712
 C          5.1260653127       -2.8806583634        0.7963683119
 H          4.2219064357       -2.2991000367        0.9875452459
 H          5.2740193642       -3.5387198524        1.6568286272
 C          4.9122567498       -3.7612437183       -0.4324981599
 H          4.0787279236       -4.4322649471       -0.2090010942
 H          5.8008004398       -4.3766913105       -0.5905679559
 C          4.5933833219       -3.0263113326       -1.7359359091
 H          4.2385450478       -3.7740022327       -2.4514087115
 H          5.4891962561       -2.5876436922       -2.1670591574
 C          3.4919983213       -1.9762523441       -1.6250161521
 H          2.6037489046       -2.4337530360       -1.1734789672
 H          3.1828365126       -1.6886816434       -2.6373675335
 H          6.4306838169       -1.4583597717        1.6973603357
 H          7.2315023510       -2.5135595989        0.5280593219
 H          6.9279797333       -0.0433972454       -0.0971702948
 H          6.4645337011       -1.2136830648       -1.3264542017
 O          4.9057852205        1.0114379373        0.2774800799
 C          3.7879026330        1.8024679219        0.4482962428
 O          3.9919482281        2.8638568651        1.0721816596
 O          1.3917492134       -0.3114508064       -1.2435931096
 C          1.3513759841        2.2254976763        0.1120299591
 C          0.2921297490        1.4553289009        0.8631859528
 C          0.6349869584        0.8620770806        2.0758457992
 C         -0.2931199178        0.1335565363        2.7934679186
 C         -1.5869310322       -0.0154757018        2.3238624187
 C         -1.9407519619        0.5740649548        1.1190200235
 C         -1.0037750643        1.3074018748        0.3984214460
 H         -1.2926977372        1.7544463333       -0.5398420472
 N         -3.2597090856        0.4622662265        0.6408868898
 S         -4.0509586919       -1.0220151154        0.7912907265
 O         -4.4818517820       -1.1741818379        2.1587616161
 O         -3.2314030203       -2.0906406934        0.2648606063
 C         -5.4639589037       -0.7391877806       -0.2570888016
 C         -6.5652615358       -0.0924273198        0.2707671668
 C         -7.6524552394        0.1574712124       -0.5513378079
 C         -7.6201717071       -0.2402500708       -1.8797071706
 C         -6.5083862063       -0.8899341238       -2.3947042374
 C         -5.4170022853       -1.1420061720       -1.5782250942
 H         -4.5353476129       -1.6514677687       -1.9337803571
 H         -6.4871200793       -1.2004072118       -3.4270136257
 H         -8.4676256951       -0.0451683276       -2.5177395764
 H         -8.5197960289        0.6599640534       -0.1546343460
 H         -6.5481083825        0.1899535009        1.3103296286
 H         -3.3458663942        0.8112845352       -0.3044328396
 H         -2.3172572671       -0.5900555840        2.8699549525
 H         -0.0093082427       -0.3265069987        3.7285472668
 H          1.6467604806        0.9736607671        2.4431482377
 H          1.6728725344        3.0650433809        0.7453851449
 C          0.8889916616        2.7713508002       -1.2225183863
 C          0.1307179300        4.0622491808       -1.2872901868
 C          1.5490609811        4.0010528981       -1.7669405734
 H          1.7394633512        4.0568095752       -2.8282569984
 H          2.3177420551        4.4592252329       -1.1616568559
 H         -0.6525132174        4.1655574788       -2.0231457465
 H         -0.0673981030        4.5717039757       -0.3565000274
 H          0.6352891521        1.9878623478       -1.9275477403
