  62
        -98.93999133
 C         -0.6409150621       -1.8374827134       -0.0574568145
 C         -1.5950653809       -1.4682310314        0.9166658667
 C         -2.6301909980       -0.5032232860        0.4995154830
 C         -2.6415227395       -0.0693266316       -0.7735886857
 C         -3.5803085147        0.9088392250       -1.4345813687
 C         -5.0737981905        0.7717762252       -1.1027107170
 C         -5.6094494830        1.9047879235       -0.2256791564
 H         -5.1544419307        2.8423212544       -0.5518123928
 H         -6.6864034326        1.9917251835       -0.3856954628
 C         -5.3799193675        1.7295036234        1.2744691590
 H         -5.6747537387        2.6595528397        1.7661091519
 H         -6.0350237630        0.9411690585        1.6517356068
 C         -3.9432970396        1.3956515134        1.6819168622
 H         -3.8127975251        1.6887591632        2.7261934552
 H         -3.2314051944        1.9834568524        1.1022617546
 C         -3.6042438721       -0.0986955125        1.5713252595
 H         -3.1443370391       -0.4385266527        2.5048600388
 H         -4.5220782535       -0.6833743128        1.4583260382
 H         -5.2633147662       -0.1924586020       -0.6339225743
 H         -5.6256234516        0.7875417060       -2.0439241027
 H         -3.4281938843        0.7654907914       -2.5068842255
 H         -3.2403069336        1.9219202482       -1.2027846556
 O         -1.7110654311       -0.4715236813       -1.6864539319
 C         -0.6727438242       -1.3267953405       -1.3533301651
 O          0.1258394789       -1.5501614017       -2.2807472912
 O         -1.5826472071       -1.9212289710        2.0943447457
 C          0.4811502752       -2.7846946730        0.3250433314
 C          1.8079455425       -2.0782404830        0.1881238242
 C          2.8773519338       -2.5854623806       -0.5375933067
 C          4.0638858675       -1.8773858833       -0.6208174896
 C          4.2082143715       -0.6581451176        0.0138793536
 C          3.1479937820       -0.1466073761        0.7554011377
 C          1.9625203650       -0.8587758097        0.8382335684
 H          1.1466150774       -0.4587636466        1.4229078759
 N          3.2841136415        1.0712661665        1.4433865150
 S          2.0693761293        2.2155929688        1.4358986865
 O          2.7004538282        3.4014767979        1.9737669073
 O          0.9139169030        1.7316765947        2.1463343039
 C          1.6843180432        2.4771071172       -0.2836399351
 C          2.5363358395        3.2635910273       -1.0349465680
 C          2.2713942125        3.4398402310       -2.3827471651
 C          1.1683945316        2.8236707885       -2.9549264071
 C          0.3215369857        2.0398001700       -2.1872465606
 C          0.5809805057        1.8628436683       -0.8374509176
 H         -0.0553891240        1.2594620268       -0.2077861618
 H         -0.5294398322        1.5477980596       -2.6308980687
 H          0.9632759954        2.9542265346       -4.0057166092
 H          2.9240845470        4.0525079602       -2.9834761218
 H          3.3746035613        3.7349006556       -0.5479633499
 H          4.1857837264        1.5119500653        1.3306347902
 H          5.1336857153       -0.1070326537       -0.0538069432
 H          4.8860420322       -2.2796668047       -1.1927656584
 H          2.7817455970       -3.5323808096       -1.0421930898
 H          0.3249065791       -3.0069461581        1.3913247781
 C          0.3861248295       -4.0748449293       -0.4611961999
 C          0.9459641071       -5.3440778571        0.1059050507
 C         -0.5375390374       -5.1505571475        0.0231784114
 H         -1.0941502923       -5.7194734746       -0.7063465980
 H         -1.0827465988       -4.9617439626        0.9366755816
 H          1.4071620906       -6.0510308935       -0.5669729008
 H          1.4093323101       -5.2941112370        1.0796608888
 H          0.4501682383       -3.9174887555       -1.5318055306
