  62
        -98.94792345
 C          0.7860837581        1.1446988878        0.5856001263
 C          1.3028006886        0.7362498075       -0.6674080663
 C          2.2363655808       -0.3984412647       -0.6323393112
 C          2.4670282144       -1.0256549641        0.5347518740
 C          3.4653339143       -2.1288308986        0.7312157219
 C          4.8361718966       -1.5645893896        1.1329071904
 C          5.3241131438       -0.4246045265        0.2386373525
 H          4.6653849686        0.4371777555        0.3685392812
 H          6.3119364559       -0.1296405065        0.5995333389
 C          5.4089601497       -0.7775142740       -1.2529928879
 H          6.3566698254       -0.4043566895       -1.6468712904
 H          5.4112797812       -1.8608224968       -1.3775576401
 C          4.2985496944       -0.1698928164       -2.1122778242
 H          4.2342487792        0.9040888967       -1.9206343589
 H          4.5728560881       -0.2986832716       -3.1626095791
 C          2.9035584207       -0.7798012764       -1.9233577065
 H          2.9636567152       -1.8639345584       -2.0251147226
 H          2.2593633830       -0.3911272123       -2.7168852803
 H          4.7700553006       -1.1900898119        2.1571822826
 H          5.5629913071       -2.3788339832        1.1160362099
 H          3.1090085921       -2.7828191206        1.5280683805
 H          3.5557566050       -2.7021963852       -0.1885126910
 O          1.8517155225       -0.6806651445        1.6958710238
 C          1.0265654423        0.4300351210        1.7582496059
 O          0.5732840493        0.6725549376        2.8962835251
 O          1.0204443400        1.3012860717       -1.7549043569
 C         -0.0777088167        2.3908070028        0.6777717228
 C         -1.3062312321        2.2253391775       -0.1811069170
 C         -1.6595186561        3.0955659015       -1.2032308459
 C         -2.7929497279        2.8571834635       -1.9611845143
 C         -3.5934467734        1.7577180512       -1.7151647146
 C         -3.2567211554        0.8897084554       -0.6807971066
 C         -2.1219832912        1.1296543404        0.0763922460
 H         -1.8676668696        0.4613268228        0.8873265853
 N         -4.0645230661       -0.2165179899       -0.3962266009
 S         -3.5787034921       -1.4828179538        0.5547941269
 O         -4.5633045059       -2.5124672318        0.2924474640
 O         -3.4669944893       -1.0679697258        1.9314085464
 C         -1.9976468991       -2.0522520615       -0.0451734252
 C         -1.6833672718       -1.9733783162       -1.3866315267
 C         -0.4936051774       -2.5294144011       -1.8286139681
 C          0.3477858457       -3.1665571282       -0.9313432747
 C          0.0222768525       -3.2318744829        0.4138536799
 C         -1.1585313471       -2.6654662055        0.8632097515
 H         -1.4440078468       -2.6824341040        1.9035176053
 H          0.6794386691       -3.7216708972        1.1142094610
 H          1.2612333853       -3.6192796193       -1.2815716364
 H         -0.2296821753       -2.4667716635       -2.8718663720
 H         -2.3547314284       -1.4810530121       -2.0709922219
 H         -4.7669825774       -0.4576734118       -1.0774069885
 H         -4.4741080220        1.5700883778       -2.3096530667
 H         -3.0535472602        3.5355897048       -2.7591465481
 H         -1.0440654973        3.9537252192       -1.4149174659
 H         -0.4051796263        2.4567873264        1.7256971712
 C          0.7441645964        3.6181924454        0.3426067459
 C          0.3483054261        4.9579008357        0.8839672992
 C          1.5609512104        4.2604942179        1.4214949688
 H          2.5359219537        4.6498979932        1.1690723945
 H          1.5079747603        3.8256288749        2.4094055533
 H          0.4929723279        5.8297129948        0.2640961139
 H         -0.5292231252        5.0029905852        1.5111861593
 H          1.1772563482        3.5736794624       -0.6499430571
