  62
        -98.93138287
 C         -2.3548144952       -0.7165949971        0.1021231658
 C         -3.5452609746       -0.7216128244        0.8627453462
 C         -4.7386235806       -0.1291431433        0.2306088513
 C         -4.6375843774        0.3637677251       -1.0171222316
 C         -5.7014431324        1.0172739140       -1.8627297410
 C         -7.0834236690        0.3455681592       -1.8721086292
 C         -8.1567042078        1.1524221778       -1.1393661628
 H         -8.0083195956        2.2110477531       -1.3626120893
 H         -9.1357054267        0.8706514037       -1.5334646605
 C         -8.1954873570        0.9564263423        0.3752761902
 H         -8.8977903291        1.6861868774        0.7851279648
 H         -8.5904864759       -0.0364545487        0.6012484399
 C         -6.8520702721        1.1142058863        1.0904203627
 H         -6.2932388203        1.9520041213        0.6747418251
 H         -7.0570681505        1.3562598976        2.1355486517
 C         -5.9893206386       -0.1565167121        1.0665263056
 H         -6.5969050065       -1.0143224313        0.7638073836
 H         -5.6385140021       -0.3806774097        2.0788742949
 H         -7.3945010810        0.2393076222       -2.9126193720
 H         -7.0110785878       -0.6570725885       -1.4535901623
 H         -5.7980395930        2.0606703098       -1.5522245036
 H         -5.2886959602        1.0317772363       -2.8739858216
 O         -3.4637175428        0.3517703210       -1.7119753639
 C         -2.2991249067       -0.1744632936       -1.1807190323
 O         -1.3116483166       -0.1068756144       -1.9362519208
 O         -3.6106495048       -1.1970226984        2.0294303805
 C         -1.0911519616       -1.3013514296        0.7065555833
 C         -0.0338937260       -0.2290178818        0.8036527418
 C         -0.3393819745        0.9446283606        1.4888700072
 C          0.5891202313        1.9607618437        1.6007091165
 C          1.8435791815        1.8327194914        1.0297600769
 C          2.1621681348        0.6646518077        0.3523589443
 C          1.2295784382       -0.3623581883        0.2522976085
 H          1.4928864824       -1.2636542211       -0.2788381203
 N          3.4260566435        0.5308959150       -0.2485204440
 S          4.7724430214        1.0703913649        0.6149857302
 O          4.7134682265        0.5899191360        1.9777224297
 O          4.8792209273        2.4992432816        0.4571619985
 C          6.0874077461        0.2630866100       -0.2759521644
 C          6.5583701517        0.8461341144       -1.4370575804
 C          7.5613102871        0.2064367874       -2.1478325112
 C          8.0725431507       -0.9987053912       -1.6892727847
 C          7.5902442946       -1.5710082057       -0.5217592749
 C          6.5864734671       -0.9371250491        0.1935981559
 H          6.1879203853       -1.3407095036        1.1106363509
 H          7.9917360322       -2.5064957386       -0.1667172353
 H          8.8538579076       -1.4938787686       -2.2439326265
 H          7.9406651140        0.6489480765       -3.0547508957
 H          6.1367215271        1.7869399121       -1.7502995729
 H          3.5757732917       -0.3961738138       -0.6223213687
 H          2.5775508758        2.6186747348        1.1065968148
 H          0.3361517814        2.8647051019        2.1348810662
 H         -1.3207166503        1.0490041954        1.9319562163
 H         -1.3674437879       -1.5990113384        1.7287943250
 C         -0.6563752462       -2.5328663983       -0.0586627003
 C          0.1705176699       -3.5848747415        0.6169425596
 C         -1.2669006014       -3.8555339435        0.2913680799
 H         -1.4951343400       -4.5450246575       -0.5074857487
 H         -1.9825393606       -3.8727689239        1.1002596739
 H          0.9286404481       -4.0948312011        0.0417753707
 H          0.4348631160       -3.4233947592        1.6511627366
 H         -0.4739862971       -2.3293577323       -1.1079621964
