  62
        -98.94069711
 C         -2.4656631085       -1.0938568146       -0.2439351825
 C         -2.1219770020        0.2795301047       -0.2096230441
 C         -3.0916742325        1.1612168571        0.4539307350
 C         -4.2021077933        0.6431673155        1.0086598133
 C         -5.2718731591        1.4109658535        1.7368029550
 C         -6.3208165290        2.0478822315        0.8147130002
 C         -5.8375703078        3.2607483074        0.0185300809
 H         -6.7224685009        3.7348099095       -0.4106826773
 H         -5.3798243454        3.9805268609        0.6978331604
 C         -4.8589012993        2.9252794314       -1.1154719426
 H         -4.9152015237        1.8579441054       -1.3410975063
 H         -5.1538923716        3.4602471798       -2.0209439263
 C         -3.4034578855        3.2928023615       -0.8263431504
 H         -3.3114458140        4.3766266573       -0.7270414928
 H         -2.7949322679        2.9791891017       -1.6781978263
 C         -2.8262258265        2.6365105139        0.4347627527
 H         -1.7423675215        2.7779133202        0.4338116967
 H         -3.2375490641        3.1085390601        1.3268463894
 H         -6.6905986304        1.2839593375        0.1269609638
 H         -7.1573489403        2.3625183356        1.4428567956
 H         -5.7763936953        0.6957947446        2.3900860454
 H         -4.8124885978        2.1820296696        2.3560941840
 O         -4.4774884317       -0.6882209675        0.9859192738
 C         -3.6271516405       -1.5822554050        0.3582734077
 O         -4.0080961561       -2.7693590056        0.4040384871
 O         -1.0691503131        0.7569842143       -0.7083240604
 C         -1.5464949575       -2.1143369421       -0.8969584238
 C         -0.2778925156       -2.1808287313       -0.0817879644
 C         -0.3017172859       -2.8472393139        1.1406268643
 C          0.8158234744       -2.8708377380        1.9528635990
 C          1.9785912096       -2.2252078063        1.5680500509
 C          2.0083824655       -1.5502152741        0.3560314934
 C          0.8881620838       -1.5404213461       -0.4665268093
 H          0.9204314893       -1.0001184027       -1.3990764674
 N          3.1847308254       -0.8901481790       -0.0513068925
 S          3.9797295055        0.0462509386        1.1092546493
 O          4.7640758083       -0.8321682644        1.9418758108
 O          3.0400217353        0.8979842318        1.8042509405
 C          5.0580766775        1.0157517147        0.0736195916
 C          6.3150760038        0.5290097553       -0.2300627138
 C          7.1383688622        1.2732632339       -1.0600972531
 C          6.6928617301        2.4832545475       -1.5707961933
 C          5.4283018453        2.9588064414       -1.2569799387
 C          4.5995001073        2.2192600654       -0.4280368288
 H          3.6121229971        2.5548071202       -0.1516434910
 H          5.0846680321        3.9005862760       -1.6538242169
 H          7.3353308746        3.0615540480       -2.2158653715
 H          8.1227336951        0.9085203147       -1.3051825640
 H          6.6196882495       -0.4122949347        0.1964921737
 H          3.0251248876       -0.3420453941       -0.8866310519
 H          2.8522575808       -2.2203118795        2.1996098035
 H          0.7828132498       -3.3910625834        2.8986741432
 H         -1.2169466455       -3.3333126150        1.4510200566
 H         -2.0582597255       -3.0819519537       -0.8088458060
 C         -1.3270613831       -1.8093049073       -2.3635815705
 C         -0.7567229384       -2.8678340885       -3.2576649785
 C         -2.1969247260       -2.4743128056       -3.3857336954
 H         -2.5018753076       -1.9046368237       -4.2507931244
 H         -2.9501885212       -3.1615796700       -3.0289436010
 H         -0.0723310952       -2.5719726397       -4.0379715861
 H         -0.5300291334       -3.8246556940       -2.8122674214
 H         -1.0471423887       -0.7797485791       -2.5492950889
