  62
        -98.94474069
 C         -1.8188908714       -0.5124379536       -0.5363248556
 C         -2.8596578751       -1.3025280764        0.0082546548
 C         -4.2227779086       -0.8145420826       -0.2273020987
 C         -4.4146795786        0.3086104642       -0.9430439563
 C         -5.7454937055        0.9188250330       -1.2908951376
 C         -6.3269989283        1.8173089221       -0.1906825019
 C         -6.8601783845        1.0787042171        1.0376162864
 H         -7.4299318624        1.8022472035        1.6241109898
 H         -7.5538887273        0.3001128950        0.7188409778
 C         -5.7713157306        0.4673751034        1.9303939601
 H         -5.9841108338        0.7011826862        2.9759993992
 H         -4.8072589872        0.9221191219        1.6907297877
 C         -5.6430629409       -1.0521691634        1.8226824901
 H         -4.8218901785       -1.3736700896        2.4682967871
 H         -6.5595167046       -1.5236661479        2.1842251725
 C         -5.3579181777       -1.5629099661        0.4041173031
 H         -5.0669808525       -2.6140935568        0.4700571879
 H         -6.2541529080       -1.4857997801       -0.2109215007
 H         -5.5602614368        2.5320559060        0.1173354726
 H         -7.1498024860        2.3833713233       -0.6335119181
 H         -6.4584991164        0.1303193729       -1.5334279171
 H         -5.5836860265        1.5279741047       -2.1828306381
 O         -3.3872752846        1.0304023296       -1.4652853331
 C         -2.0669619448        0.6545648891       -1.2587719443
 O         -1.2304497722        1.4261764094       -1.7654843419
 O         -2.6580847013       -2.3615944174        0.6603905430
 C         -0.3796751236       -0.9475496518       -0.3221170093
 C          0.3753714332        0.1316086058        0.4117457029
 C         -0.1539626759        0.6139690192        1.6075063421
 C          0.4767165750        1.6243766748        2.3046700886
 C          1.6586089196        2.1684229319        1.8318839955
 C          2.2013704511        1.6878089664        0.6471936797
 C          1.5660606851        0.6677436967       -0.0511916395
 H          2.0007118403        0.3284649462       -0.9762206529
 N          3.3943617776        2.2248852877        0.1463084105
 S          4.4955908297        1.2672259437       -0.6562406306
 O          5.7512495148        1.9748014005       -0.5179339468
 O          4.0677863516        1.0142464652       -2.0089747128
 C          4.5630801806       -0.2657474895        0.2564353602
 C          4.5236356254       -1.4598897677       -0.4326367569
 C          4.5900302061       -2.6492634763        0.2756111441
 C          4.6928788693       -2.6233343114        1.6573773131
 C          4.7373913929       -1.4150963283        2.3362325924
 C          4.6753722479       -0.2235937950        1.6323178244
 H          4.7152047118        0.7279931306        2.1363385866
 H          4.8194704879       -1.3980670341        3.4110362429
 H          4.7395532387       -3.5496192796        2.2080516256
 H          4.5580528430       -3.5885531965       -0.2530878421
 H          4.4365772859       -1.4335521115       -1.5066252037
 H          3.8395310746        2.9151479664        0.7319639114
 H          2.1490188302        2.9664241514        2.3681278123
 H          0.0481342744        1.9930803128        3.2243749070
 H         -1.0785410756        0.1897803113        1.9747603727
 H         -0.4374978569       -1.8315942297        0.3302665054
 C          0.2471885180       -1.3551517600       -1.6376859987
 C          1.3504229632       -2.3682945003       -1.6670581450
 C         -0.0147792637       -2.7331415648       -2.1652223399
 H         -0.1625010914       -2.8593023485       -3.2273418540
 H         -0.6243354827       -3.3870302889       -1.5588338508
 H          2.1407673875       -2.2403649610       -2.3910810022
 H          1.6754309347       -2.7800459949       -0.7237282192
 H          0.2793580391       -0.5431702768       -2.3562478481
