  62
        -98.93174116
 C         -2.4991865314       -1.0908468597        0.5160547292
 C         -3.3560307713       -0.7976772802       -0.5704608209
 C         -4.5483651714        0.0286514198       -0.2734284413
 C         -4.7486908416        0.4625618302        0.9838145685
 C         -5.8577203517        1.3348476203        1.5102446781
 C         -5.6850278618        2.8136499102        1.1296463576
 C         -5.2846673217        3.0594919897       -0.3223924625
 H         -5.0976599119        4.1303444397       -0.4381241429
 H         -4.3452174617        2.5429630497       -0.5269788122
 C         -6.3264779016        2.6519367592       -1.3614878424
 H         -7.2570106017        3.1896320092       -1.1664047227
 H         -5.9547346416        2.9757104489       -2.3369835525
 C         -6.6367225115        1.1557007291       -1.4466581519
 H         -7.1824441914        0.9895796987       -2.3801200719
 H         -7.2992952215        0.8439109394       -0.6437211518
 C         -5.4074846814        0.2539647492       -1.4947352515
 H         -5.7205345712       -0.7454707709       -1.8201929111
 H         -4.7314999613        0.6110843290       -2.2799229516
 H         -4.9050615019        3.2376412305        1.7668312775
 H         -6.6184624919        3.3360021102        1.3463353673
 H         -5.8296177818        1.2509612307        2.5989903881
 H         -6.8198313016        0.9589972301        1.1749249282
 O         -3.8840384216        0.1678248107        1.9979481287
 C         -2.7598268315       -0.6038190192        1.7988399990
 O         -2.0781225316       -0.7962690688        2.8272157492
 O         -3.1608528912       -1.1914614906       -1.7485876408
 C         -1.2497102713       -1.9466940196        0.3884099996
 C         -0.0621903813       -1.1105934496       -0.0133387506
 C         -0.0935978713       -0.3028540501       -1.1459472809
 C          1.0122407086        0.4480637999       -1.5005702411
 C          2.1650481486        0.4158015503       -0.7350968010
 C          2.2056708086       -0.3825128192        0.3996205493
 C          1.0954118386       -1.1403157592        0.7502926095
 H          1.1273907186       -1.7534914789        1.6414081997
 N          3.3686346685       -0.4053481688        1.1882853994
 S          4.8339048686       -0.7169836589        0.4279781696
 O          4.6484319488       -1.5272375094       -0.7532754201
 O          5.6848370886       -1.2672911085        1.4600091599
 C          5.4365634985        0.8959479310       -0.0233258709
 C          5.7461314385        1.1708266505       -1.3408806610
 C          6.2232938384        2.4305738504       -1.6681429014
 C          6.3824622182        3.3870233108       -0.6771461318
 C          6.0696825682        3.0938600713        0.6420398683
 C          5.5929082783        1.8364212813        0.9759808787
 H          5.3423134182        1.5677666517        1.9886766488
 H          6.1953891480        3.8402253216        1.4098259780
 H          6.7529721582        4.3668321308       -0.9341457621
 H          6.4674863785        2.6602394801       -2.6928991715
 H          5.6019984087        0.3972930902       -2.0783531707
 H          3.2786991785       -0.9529282485        2.0320404296
 H          3.0274726185        1.0019061303       -1.0076500511
 H          0.9760011886        1.0685447996       -2.3832065713
 H         -0.9912676813       -0.2778714904       -1.7448651210
 H         -1.0590582913       -2.3192605292        1.4077616398
 C         -1.4507589311       -3.1674453400       -0.5000603799
 C         -0.7945362509       -3.3550184004       -1.8312127498
 C         -0.3416039609       -4.1659988699       -0.6569388795
 H         -0.5806983808       -5.2182006599       -0.6244344891
 H          0.6160997990       -3.9177382596       -0.2225595895
 H         -1.3710114708       -3.8359651307       -2.6064931497
 H         -0.1380601710       -2.5810746004       -2.1956481300
 H         -2.4531796910       -3.5720527900       -0.4023953598
