  62
        -98.94177807
 C          0.5838441707        1.4681616885        0.0331574729
 C          1.3463957622        0.7523632132        0.9819757306
 C          2.4159841158       -0.1141639772        0.4534048154
 C          2.5753003218       -0.2231601884       -0.8787965090
 C          3.5636737944       -1.0141701090       -1.7107794506
 C          4.7354081568       -1.7347932818       -1.0504306478
 C          5.8258912137       -0.8063913275       -0.5127237553
 H          6.5349902023       -1.4030792936        0.0648745428
 H          6.3656168339       -0.3812279896       -1.3626933029
 C          5.3400263506        0.3587723023        0.3461908438
 H          4.6665381027        0.9899463319       -0.2368459623
 H          6.2094678336        0.9692628196        0.6050857122
 C          4.6465063642       -0.0339107797        1.6484585168
 H          5.3096303974       -0.6661455240        2.2425350568
 H          4.4624792640        0.8825041659        2.2162008340
 C          3.3010393052       -0.7581110934        1.4819540014
 H          3.4521024824       -1.8108837639        1.2620061802
 H          2.7616639676       -0.6919050807        2.4315132009
 H          5.1915896841       -2.3638184298       -1.8194812298
 H          4.3782074466       -2.3997942556       -0.2700893963
 H          2.9650382173       -1.7449735091       -2.2632710513
 H          3.9528821989       -0.3141539240       -2.4573164615
 O          1.7521889575        0.4227746386       -1.7572019687
 C          0.7664881159        1.2978021759       -1.3376117167
 O          0.1366259341        1.8451812734       -2.2617900722
 H         -1.5359810590        0.0138474428        0.3925170238
 C         -2.2030287199        0.7418445851       -0.0468397477
 C         -1.8221953473        2.0774740476       -0.0735954306
 C         -2.6954466101        3.0061922438       -0.6243915011
 C         -3.9087927218        2.5976070272       -1.1503223310
 C         -4.2791214427        1.2660330139       -1.1304896734
 C         -3.4154545066        0.3292127257       -0.5730547483
 N         -3.7389188070       -1.0340196362       -0.5682078495
 S         -3.1917339452       -2.0425095460        0.6400553363
 O         -4.0091987999       -3.2308788273        0.5094491096
 O         -3.2271932705       -1.4001929733        1.9336853089
 C         -1.5190685335       -2.4573706751        0.1952608909
 C         -0.6099920691       -2.6954596591        1.2065901711
 C          0.6714484945       -3.1034077574        0.8755604771
 C          1.0221533705       -3.2603119616       -0.4557099575
 C          0.1015526444       -3.0054802275       -1.4602698477
 C         -1.1849500000       -2.6065855207       -1.1357496825
 H         -1.9239846122       -2.4023779103       -1.8928757667
 H          0.3787387676       -3.1192139178       -2.4962832471
 H          2.0181626506       -3.5853780951       -0.7111815356
 H          1.3867227176       -3.2960063224        1.6586520319
 H         -0.9187001622       -2.5469169023        2.2293224562
 H         -4.6665105951       -1.2692524069       -0.8877196699
 H         -5.2230559357        0.9488275718       -1.5466221483
 H         -4.5765286694        3.3277405438       -1.5819710441
 H         -2.4243915677        4.0487652923       -0.6499355696
 C         -0.4794144537        2.4398226725        0.5092130399
 H         -0.5345167022        2.3079339850        1.6006418841
 C         -0.0529281842        3.8624306503        0.2092195579
 C         -0.4932854869        4.9903946173        1.0923392461
 C          0.9321610616        4.5294673410        1.1200491816
 H          1.6902012821        5.1637533891        0.6855108495
 H          1.2728679781        3.9664591552        1.9768495273
 H         -0.7122870146        5.9456291553        0.6393761442
 H         -1.1200070667        4.7481049334        1.9373884335
 H          0.0430152387        4.0498858800       -0.8546868839
 O          1.1502018452        0.8372108046        2.2252816812
