  62
        -98.94014598
 C         -2.1344332784       -1.1800767888        0.2097789412
 C         -1.6704583516       -0.1881049709       -0.6848891147
 C         -2.2645280140        1.1581128347       -0.5456649373
 C         -3.2126688926        1.3563258626        0.3890047862
 C         -3.9185530977        2.6393947642        0.7380587634
 C         -3.0387143998        3.5830123956        1.5744430911
 C         -1.5974507067        3.7149362704        1.0880716606
 H         -1.0526631734        4.3141495338        1.8227980824
 H         -1.1320503985        2.7272987901        1.0680619695
 C         -1.4311538173        4.3808369527       -0.2754261210
 H         -1.8671350751        5.3817360143       -0.2385224653
 H         -0.3583274301        4.4934223762       -0.4478965160
 C         -2.0348187733        3.6322726328       -1.4660645425
 H         -1.6284133933        4.0857584325       -2.3745685180
 H         -3.1115793031        3.7738928156       -1.5081922145
 C         -1.6955127540        2.1460675569       -1.5348777229
 H         -1.9838843372        1.7709820512       -2.5240373608
 H         -0.6080421900        2.0207183260       -1.4853416606
 H         -3.5095973668        4.5672101574        1.5955953075
 H         -3.0117719295        3.2008713283        2.5981294177
 H         -4.2681639137        3.1318750213       -0.1641065268
 H         -4.7950132095        2.3661306665        1.3298123836
 O         -3.6380503486        0.3619719986        1.2216072074
 C         -3.1124407783       -0.9140846632        1.1655882649
 O         -3.5831908447       -1.7077191406        2.0070853894
 H         -0.0250652162       -0.8720672100        1.5297546379
 C          0.5747578611       -1.6033782210        1.0014359924
 C         -0.0573766372       -2.5693192357        0.2296945937
 C          0.7312992797       -3.5042875854       -0.4298951993
 C          2.1105349974       -3.4641569745       -0.3208963253
 C          2.7353043039       -2.4877109284        0.4326048314
 C          1.9571160084       -1.5419944404        1.0884718545
 N          2.5745169791       -0.5283588189        1.8469583415
 S          3.7575727759        0.4130009511        1.1263233193
 O          4.9235315244       -0.4016163550        0.8928206742
 O          3.9333589760        1.5363412144        2.0189438316
 C          3.0881201098        0.9711357716       -0.4293082032
 C          3.1771764595        0.1553438829       -1.5393209399
 C          2.6274429745        0.5893332228       -2.7345381780
 C          2.0157493824        1.8301192768       -2.8042510939
 C          1.9445525984        2.6424642282       -1.6830315732
 C          2.4746542454        2.2068436866       -0.4796960409
 H          2.4378065299        2.8072691938        0.4156219528
 H          1.4776214621        3.6129083227       -1.7447999319
 H          1.5894471504        2.1660079577       -3.7363364549
 H          2.6769412513       -0.0431094657       -3.6059636868
 H          3.6748952874       -0.7961653640       -1.4556444111
 H          1.9152156892        0.0679816622        2.3259015888
 H          3.8088122794       -2.4354802630        0.5178529747
 H          2.7085573122       -4.2016801977       -0.8343632716
 H          0.2643348985       -4.2663807130       -1.0319937844
 C         -1.5651234503       -2.5838065979        0.1472061297
 H         -1.9523143332       -3.1100595119        1.0328901848
 C         -2.0766076255       -3.2873875755       -1.0957120933
 C         -2.3694935852       -4.7569330743       -1.0770351934
 C         -3.4952124136       -3.7690258519       -1.1175425287
 H         -4.0626922042       -3.6660305128       -2.0302676243
 H         -4.0802241410       -3.6198873293       -0.2212593747
 H         -2.2014591148       -5.2911973009       -0.1539516299
 H         -2.1667760828       -5.3349728105       -1.9662128024
 H         -1.6806830483       -2.8540755028       -2.0071954026
 O         -0.7866253510       -0.4021154014       -1.5542398035
