  62
        -98.94339262
 C         -2.5172927232       -1.1531159422        0.0080259596
 C         -3.4374336511       -0.5605505834        0.9147409357
 C         -4.3517922633        0.4401365589        0.3573356761
 C         -4.3059637658        0.7225510653       -0.9568308466
 C         -5.1859476126        1.7011699780       -1.6856995486
 C         -4.7002651730        3.1550729737       -1.6060112299
 C         -4.8825081154        3.8282774478       -0.2450304531
 H         -4.7074695950        4.8961172384       -0.3904021686
 H         -5.9159566519        3.7096475890        0.0819054842
 C         -3.9326386059        3.3169771961        0.8473126895
 H         -3.1004650532        2.7801295958        0.3856993772
 H         -3.5051297593        4.1662833196        1.3848716097
 C         -4.5907703314        2.4088771689        1.8862883842
 H         -5.3356884317        2.9755456070        2.4492392247
 H         -3.8202906525        2.0756938306        2.5862245329
 C         -5.2669094865        1.1632672473        1.2985268039
 H         -5.5054227776        0.4824282783        2.1191733809
 H         -6.1917394967        1.4397506427        0.7926888609
 H         -3.6458431859        3.1870851337       -1.8901839669
 H         -5.2618437924        3.7267919171       -2.3484585195
 H         -5.1889785530        1.3958054932       -2.7343159339
 H         -6.2041858963        1.6346005062       -1.3014879933
 O         -3.4341363118        0.1123823538       -1.8001022564
 C         -2.5054215731       -0.8132804880       -1.3445042488
 O         -1.7566490420       -1.2393073382       -2.2486110502
 H          0.1895510462       -1.1204923105       -1.1945601197
 C          0.5740053777       -1.0717657361       -0.1863206412
 C         -0.1975621394       -1.5591206008        0.8589898954
 C          0.3095984315       -1.4822423048        2.1508395040
 C          1.5556592493       -0.9280662692        2.3862557487
 C          2.3170352532       -0.4338103512        1.3424534303
 C          1.8190502876       -0.5047187912        0.0477673677
 N          2.5642190729        0.0240574690       -1.0188296550
 S          4.1924400305       -0.3552311442       -1.1430769538
 O          4.5202851168       -0.1700400442       -2.5397010611
 O          4.4806054563       -1.6554712885       -0.5831223011
 C          4.9977176175        0.9128149176       -0.1862461147
 C          4.7045073384        2.2312141524       -0.4750408291
 C          5.3289719516        3.2306610534        0.2538139380
 C          6.2336934112        2.8971295935        1.2508993260
 C          6.5204871046        1.5689229745        1.5259732529
 C          5.8981841029        0.5642130174        0.8012571862
 H          6.0850187679       -0.4819782712        0.9840791270
 H          7.2241021538        1.3117523979        2.3013306817
 H          6.7176643255        3.6774327743        1.8167625872
 H          5.1078677589        4.2646334653        0.0429722588
 H          3.9975787617        2.4482468524       -1.2585314704
 H          2.1009882723       -0.0576387745       -1.9123988337
 H          3.2865617416        0.0019252697        1.5201850657
 H          1.9371362178       -0.8755392893        3.3944977833
 H         -0.2856524148       -1.8504862086        2.9736027770
 C         -1.5535298789       -2.1708568174        0.5950884479
 H         -1.9885196890       -2.4453205528        1.5656138502
 C         -1.4211687003       -3.4294625543       -0.2401810932
 C         -0.9491881048       -4.6904102894        0.4167590383
 C         -2.3774443296       -4.5609781257       -0.0187572932
 H         -2.7119653725       -5.1268809416       -0.8752164932
 H         -3.1332295749       -4.4341731037        0.7426641224
 H         -0.2977280957       -5.3472186903       -0.1391500333
 H         -0.7367526330       -4.6538093305        1.4744729922
 H         -1.1020816256       -3.2420508624       -1.2573130592
 O         -3.4942469857       -0.8632617176        2.1358293815
