  62
        -98.93548627
 C          1.4786107879        0.2727376348        0.5039776366
 C          2.3434275645        0.4851029694       -0.5979210485
 C          3.5199528321       -0.3979488634       -0.6644564603
 C          3.6916716147       -1.3496198360        0.2694860894
 C          4.8732542311       -2.2715326505        0.3503993853
 C          5.9824411990       -1.6766616723        1.2296235793
 C          6.3338461455       -0.2289710141        0.8862409684
 H          5.4768216707        0.4088775299        1.1141107719
 H          7.1460260935        0.0741097236        1.5505746418
 C          6.7563865081       -0.0067930415       -0.5727017650
 H          7.0372894158       -0.9582764580       -1.0256916348
 H          7.6414389233        0.6327685166       -0.5870725493
 C          5.6990028292        0.6758098838       -1.4423046632
 H          5.3472289983        1.5837098555       -0.9461921055
 H          6.1733953791        0.9773812631       -2.3798824725
 C          4.4777478618       -0.1798166199       -1.8019838253
 H          3.9115593743        0.3545827619       -2.5704402818
 H          4.8058111464       -1.1342949179       -2.2185369649
 H          6.8717803198       -2.3021648317        1.1330221105
 H          5.6539764288       -1.7116978992        2.2710506083
 H          4.5430269184       -3.2164022213        0.7856226866
 H          5.2511093483       -2.4583121694       -0.6529853802
 O          2.8185599475       -1.5485231146        1.2911208925
 C          1.7038936369       -0.7415342102        1.4372262945
 O          0.9975543631       -1.0196325667        2.4292491295
 H         -1.3428502297       -0.8754282468        0.1261786980
 C         -1.4112169611       -0.1085748425       -0.6320099238
 C         -0.6399612070        1.0442498008       -0.5115380032
 C         -0.7063803478        1.9784023954       -1.5382989911
 C         -1.5313972868        1.7666097935       -2.6300012020
 C         -2.3220385599        0.6366971623       -2.7227480235
 C         -2.2523986139       -0.3155774719       -1.7132719414
 N         -3.0389202197       -1.4786893662       -1.7557969885
 S         -3.7393843610       -2.0131127221       -0.3329653749
 O         -2.7868478076       -2.7667849400        0.4430112625
 O         -4.9162379323       -2.7397688048       -0.7614580302
 C         -4.2165234549       -0.5228296825        0.5251943894
 C         -3.6072750954       -0.1782530837        1.7140847164
 C         -3.9592340451        1.0149924963        2.3253982778
 C         -4.9085330285        1.8380076537        1.7401944607
 C         -5.5197364959        1.4726759696        0.5503059682
 C         -5.1704980954        0.2826684781       -0.0660715850
 H         -5.6294819158       -0.0374504280       -0.9872774893
 H         -6.2615101005        2.1125127993        0.1003704585
 H         -5.1733195105        2.7687562539        2.2163575502
 H         -3.4826996537        1.2977741861        3.2504468720
 H         -2.8677767068       -0.8403640030        2.1374622770
 H         -3.6863417906       -1.5211869453       -2.5293310104
 H         -2.9722788696        0.4828879077       -3.5701525042
 H         -1.5616521359        2.5020334423       -3.4195376655
 H         -0.0916575820        2.8592296863       -1.5196845928
 C          0.2265944289        1.1158262129        0.7217146004
 H         -0.3262834656        0.5788228666        1.5086923470
 C          0.5838173813        2.4598904499        1.3422388696
 C          1.2486134968        3.6011204078        0.6358794568
 C         -0.1700025460        3.7331516385        1.1043141698
 H         -0.3640917740        4.3701905693        1.9543741635
 H         -0.9615722007        3.7244861497        0.3727531700
 H          2.0156449942        4.1389939438        1.1756696150
 H          1.4668725079        3.4943547260       -0.4136951158
 H          0.9237725509        2.2944308017        2.3626024483
 O          2.1623409286        1.3582342559       -1.4821971076
