  62
        -98.94035636
 C         -2.4232047267       -1.1599591508        0.0981608278
 C         -3.3349447083       -0.4724277378        0.9389715099
 C         -4.1955105806        0.5205345553        0.2869993011
 C         -4.0699952817        0.7455200462       -1.0334335198
 C         -4.8947783037        1.7015411849       -1.8519227544
 C         -4.3957407511        3.1523311726       -1.8116413469
 C         -4.6420406675        3.8884161668       -0.4940796743
 H         -4.4439657458        4.9466061058       -0.6756595400
 H         -5.6930301313        3.7967256581       -0.2184709517
 C         -3.7601311941        3.4146510455        0.6698039464
 H         -2.9129842028        2.8470165641        0.2769017313
 H         -3.3483086923        4.2813684740        1.1920923480
 C         -4.4873953672        2.5625206275        1.7102281955
 H         -5.2534028481        3.1635818090        2.2051492308
 H         -3.7625370329        2.2525624112        2.4677251901
 C         -5.1484710963        1.2995179276        1.1426387166
 H         -5.4427706052        0.6616282630        1.9797718246
 H         -6.0398554422        1.5648684736        0.5744954542
 H         -3.3274027729        3.1607517039       -2.0398266451
 H         -4.9098272821        3.6956074589       -2.6077552867
 H         -4.8441621348        1.3491513717       -2.8843520560
 H         -5.9333150141        1.6635136269       -1.5218629929
 O         -3.1575718756        0.0936691364       -1.7997482232
 C         -2.2963097371       -0.8546478544       -1.2581673833
 O         -1.4926327635       -1.3286139984       -2.0807557342
 O         -3.4235169684       -0.6786454286        2.1794461605
 C         -1.5167543090       -2.1938068127        0.7408495875
 C         -0.0831926320       -1.9675105035        0.3287250883
 C          0.7111831274       -2.9363884308       -0.2684548536
 C          2.0236865038       -2.6548946052       -0.6065282919
 C          2.5705993095       -1.4096482087       -0.3611824819
 C          1.7866672956       -0.4325827394        0.2391182568
 C          0.4764375088       -0.7211078781        0.5860767107
 H         -0.1343271383        0.0414644581        1.0560242840
 N          2.3296256763        0.8432889085        0.4765521009
 S          3.7898595435        0.9403806833        1.3005230105
 O          3.9539306205       -0.1654463039        2.2158493439
 O          3.8050814144        2.2640238441        1.8846601454
 C          5.0201608513        0.8584611081        0.0166044626
 C          6.0093506581       -0.1038218881        0.0726240196
 C          6.9627418332       -0.1437113765       -0.9329340029
 C          6.9109278619        0.7752143314       -1.9698201710
 C          5.9126987767        1.7374601042       -2.0094716270
 C          4.9571908697        1.7835497322       -1.0069476914
 H          4.1675978640        2.5164171459       -0.9993379467
 H          5.8754652132        2.4502238769       -2.8175347117
 H          7.6525813572        0.7415080609       -2.7521952548
 H          7.7397133069       -0.8905908204       -0.9037455604
 H          6.0057309215       -0.8010319386        0.8952267841
 H          1.6658970215        1.5020227294        0.8573737003
 H          3.5894800911       -1.1857824203       -0.6315931555
 H          2.6276120808       -3.4161565355       -1.0762952813
 H          0.2984277487       -3.9068779580       -0.4883962471
 H         -1.5886061577       -1.9811145433        1.8216604145
 C         -1.9796716472       -3.6315640841        0.5576400728
 C         -3.4238277414       -3.9558750642        0.3216836236
 C         -2.4200362568       -4.1716480709       -0.7688296507
 H         -2.1518914012       -5.1868960616       -1.0224222887
 H         -2.4160527206       -3.4956723971       -1.6090439894
 H         -3.8423919557       -4.8189653261        0.8173410781
 H         -4.1143269179       -3.1303290712        0.2257559485
 H         -1.4374934234       -4.3143077221        1.2049867232
