  62
        -98.93862103
 C         -2.1024416372       -0.9651272581       -0.0032667850
 C         -2.8406996599       -0.2669784550        0.9794077674
 C         -3.5164886332        0.9652863658        0.5403260663
 C         -3.3682165064        1.3798986768       -0.7297236485
 C         -3.9155659296        2.6259684999       -1.3805914270
 C         -5.3647514200        3.0171807456       -1.0610666068
 C         -6.3183221858        1.8365525916       -0.8264700495
 H         -7.2029052737        1.9658201019       -1.4526641913
 H         -5.8389765169        0.9036614089       -1.1279737742
 C         -6.7842186245        1.7250894119        0.6271271969
 H         -7.7030372534        1.1346939958        0.6567971325
 H         -7.0258621850        2.7247054967        0.9947851338
 C         -5.7925853109        1.0660944636        1.5849799795
 H         -5.7147205351       -0.0012139386        1.3609353077
 H         -6.1944887858        1.1525659133        2.5972780110
 C         -4.3699121316        1.6490918604        1.5698851279
 H         -4.3858981784        2.7271388488        1.4288229832
 H         -3.9074872134        1.4316832988        2.5367530231
 H         -5.3826443295        3.6678330242       -0.1878457187
 H         -5.7217023689        3.6127481291       -1.9029804672
 H         -3.2537052757        3.4592947280       -1.1255703366
 H         -3.8110103268        2.4527514708       -2.4544559696
 O         -2.6195348265        0.6911069389       -1.6378188974
 C         -1.9729536352       -0.4897239562       -1.3075606314
 O         -1.3348232260       -1.0053740166       -2.2440055086
 O         -2.9186021708       -0.6462018991        2.1796686170
 C         -1.3756362827       -2.2404963267        0.3858861675
 C          0.1081963774       -2.0451469057        0.1933913685
 C          0.9132192361       -2.9053423715       -0.5402283344
 C          2.2608838327       -2.6330939332       -0.7046966597
 C          2.8342764278       -1.5094125545       -0.1392708120
 C          2.0395262567       -0.6470312433        0.6051080384
 C          0.6925996044       -0.9233851628        0.7702218103
 H          0.0726875495       -0.2451211824        1.3449317392
 N          2.6171303642        0.4987785984        1.1897513116
 S          3.3473224960        1.5882038938        0.1347789033
 O          3.3027586895        2.8633389142        0.8183440536
 O          2.7451852753        1.5415857883       -1.1780504938
 C          5.0364685041        1.0311922551        0.0573563807
 C          5.7571307254        0.9701997492        1.2342326513
 C          7.0745145541        0.5428636146        1.1897362042
 C          7.6459629185        0.1886705592       -0.0235614414
 C          6.9096196249        0.2581209167       -1.1963533361
 C          5.5907603087        0.6839385700       -1.1589228369
 H          4.9763036679        0.7487049011       -2.0428918768
 H          7.3550735482       -0.0177036885       -2.1386413042
 H          8.6715315879       -0.1436397276       -0.0556787600
 H          7.6504667918        0.4873717285        2.0993278439
 H          5.2756096539        1.2587433133        2.1535463685
 H          1.9801281242        0.9943063513        1.7981889218
 H          3.8814926227       -1.2913632160       -0.2713793478
 H          2.8728966558       -3.3057719951       -1.2858574720
 H          0.4837800058       -3.7818233022       -0.9964553106
 H         -1.5679760673       -2.3698303260        1.4614148330
 C         -1.9403199264       -3.4312082023       -0.3581755195
 C         -1.8348883253       -4.8050708560        0.2314865920
 C         -3.1614902430       -4.1104102817        0.1828381877
 H         -3.9063668688       -4.4637852978       -0.5143003665
 H         -3.5743728794       -3.7275396493        1.1048317343
 H         -1.6706007279       -5.6397988036       -0.4328415473
 H         -1.3480850206       -4.9005364181        1.1900955964
 H         -1.8620208073       -3.3249936701       -1.4343039856
