  62
        -98.93657056
 C         -2.5693028281       -0.6404494195        0.0634465034
 C         -2.8655280348        0.4256441201        0.9401731769
 C         -2.9001494289        1.7814108049        0.3587568087
 C         -2.6283483019        1.9285905273       -0.9516422541
 C         -2.5422865485        3.2037086258       -1.7474403551
 C         -1.2364386971        3.9696287989       -1.4837743117
 C         -0.8506123595        4.0932171869       -0.0122670388
 H         -0.7297163007        3.0919510181        0.4063531240
 H          0.1294848710        4.5757482054        0.0307481270
 C         -1.8129758193        4.9047486604        0.8524234220
 H         -1.9003163623        5.9117732883        0.4388609938
 H         -1.3611414916        4.9907402672        1.8438831863
 C         -3.2191188371        4.3244517958        1.0218121116
 H         -3.8327313826        4.5173739761        0.1460793209
 H         -3.6908482703        4.8546135226        1.8542345907
 C         -3.2588067262        2.8408734327        1.3735770657
 H         -2.6124843260        2.6600942317        2.2401018782
 H         -4.2711126180        2.5900935727        1.7130892043
 H         -0.4256837868        3.4394707838       -1.9909399807
 H         -1.3236425287        4.9633650868       -1.9268143653
 H         -2.5692085309        2.9171678223       -2.8011460230
 H         -3.4067133889        3.8306992890       -1.5505539585
 O         -2.3346457466        0.8688799986       -1.7593311831
 C         -2.2806195905       -0.4267599162       -1.2840650986
 O         -1.9814043171       -1.2815645776       -2.1402725949
 O         -3.0792285864        0.2597384256        2.1733046585
 C         -2.4727451808       -2.0518857041        0.6156907480
 C         -1.0673502798       -2.5580305264        0.4018450100
 C         -0.7606846106       -3.7830643431       -0.1745269512
 C          0.5572273955       -4.1415717207       -0.4050903907
 C          1.5946454493       -3.2921988199       -0.0667549651
 C          1.2977539640       -2.0765824666        0.5321592899
 C         -0.0185675205       -1.7242686464        0.7710713741
 H         -0.2408853223       -0.7642000423        1.2229231573
 N          2.3575727005       -1.1825904561        0.8507201749
 S          2.8189404585       -0.2505182994       -0.4885693903
 O          1.9291834177        0.8843172418       -0.6283610359
 O          2.9461204706       -1.1216232993       -1.6282697045
 C          4.4324398688        0.3061767514        0.0268977327
 C          5.4579667858       -0.6190370356        0.0579486273
 C          6.7128962985       -0.2140322092        0.4825567891
 C          6.9199858641        1.1025099768        0.8677128430
 C          5.8806611275        2.0192025804        0.8316283249
 C          4.6219783333        1.6192968933        0.4094830806
 H          3.7850591111        2.2975125974        0.3606713273
 H          6.0440928154        3.0422077687        1.1301873656
 H          7.8978876464        1.4163484688        1.1970932016
 H          7.5237180103       -0.9238570478        0.5119924997
 H          5.2507738405       -1.6280024458       -0.2573015655
 H          2.0710790514       -0.5278820111        1.5688514622
 H          2.6212028509       -3.5454016415       -0.2734166876
 H          0.7766342634       -5.0915675884       -0.8682351349
 H         -1.5556337384       -4.4507337463       -0.4641397153
 H         -2.6494095467       -1.9580936380        1.6976185482
 C         -3.5416240072       -2.9412395582        0.0190703199
 C         -4.0485584875       -4.1263452128        0.7839630454
 C         -4.9171915717       -2.9176507934        0.6128117429
 H         -5.7657660115       -2.9790680210       -0.0517099065
 H         -5.0768631010       -2.2748001633        1.4661537498
 H         -4.3046313737       -5.0210916740        0.2371482119
 H         -3.6230712892       -4.3102060961        1.7587629063
 H         -3.4621731269       -3.0188262081       -1.0595168104
