  62
        -98.93833152
 C          2.2602928498        1.0284785508        0.3837465685
 C          2.4402782999        0.1166412903       -0.6819640610
 C          3.2869953703       -1.0587830993       -0.4040694305
 C          3.8292362105       -1.2108699585        0.8185955095
 C          4.6889215708       -2.3154504980        1.3978294700
 C          5.3582526811       -3.3435799282        0.4893982205
 C          6.4551657908       -2.7814561384       -0.4140639000
 H          7.3040442308       -2.4908701678        0.2099991798
 H          6.7902225510       -3.5794536786       -1.0802074296
 C          6.0621989103       -1.5670042890       -1.2515616905
 H          5.8235748402       -0.7289972987       -0.5933824810
 H          6.9338634702       -1.2731422790       -1.8425903708
 C          4.8992287903       -1.7868195298       -2.2171052603
 H          4.8324520400       -0.9033662802       -2.8574989908
 H          5.1088917705       -2.6472711501       -2.8553699699
 C          3.5217846604       -1.9864419899       -1.5612129901
 H          2.7553743403       -1.7461414205       -2.3039618201
 H          3.3722318608       -3.0208249798       -1.2609557295
 H          4.6119158111       -3.8690389788       -0.0989968492
 H          5.8207329913       -4.0841775678        1.1476891608
 H          5.4562685208       -1.8120560074        1.9945402096
 H          4.0478804111       -2.8481670778        2.1092690603
 O          3.6057668703       -0.3115134681        1.8234450891
 C          2.8274213799        0.8173904116        1.6374893385
 O          2.7128087298        1.5371832721        2.6515425682
 H         -0.0611993199        0.2835268005        1.1954956391
 C         -0.6093303102        0.8164989900        0.4269874489
 C          0.0033123994        1.8804454698       -0.2234400817
 C         -0.7197491709        2.5659190291       -1.1909142220
 C         -2.0096441708        2.1770592085       -1.5090377616
 C         -2.6053922004        1.1023187587       -0.8756893310
 C         -1.8969684101        0.4177352494        0.1032880093
 N         -2.4862906797       -0.6862122504        0.7447948599
 S         -4.0164244197       -0.4966337805        1.4091457700
 O         -4.2461176400        0.8667603696        1.8286459493
 O         -4.1085107193       -1.5097279000        2.4380956305
 C         -5.1175839497       -0.9203615916        0.0761508503
 C         -4.9537952294       -2.1465581218       -0.5380358991
 C         -5.8068420494       -2.4952987226       -1.5728019788
 C         -6.8053251797       -1.6186933131       -1.9710817791
 C         -6.9588988700       -0.3928980529       -1.3417199798
 C         -6.1080663000       -0.0372100621       -0.3065890101
 H         -6.1848684702        0.9074022482        0.2078255895
 H         -7.7355906902        0.2869944268       -1.6530500600
 H         -7.4673308597       -1.8929400938       -2.7771938289
 H         -5.6897455592       -3.4472589129       -2.0651744183
 H         -4.1669513792       -2.7987491814       -0.1972110188
 H         -1.8720283295       -1.1500219099        1.3981830701
 H         -3.6056301003        0.7907988583       -1.1283147808
 H         -2.5570622610        2.7159793980       -2.2671025919
 H         -0.2717810512        3.4038163489       -1.6992544125
 C          1.4055009094        2.2656390704        0.1851709679
 H          1.3471864893        2.7561504609        1.1687907577
 C          2.0780155090        3.2097948201       -0.7906944426
 C          1.9043455086        4.6918570101       -0.6557047134
 C          3.2152139988        4.0559957207       -0.3057058132
 H          4.0587368487        4.2128042006       -0.9610938834
 H          3.4835362589        3.9725615413        0.7378801868
 H          1.8511667983        5.2892660396       -1.5533813137
 H          1.2859408685        5.0521851304        0.1526671565
 H          2.1561065390        2.7890634296       -1.7865185724
 O          1.9120329197        0.2662758895       -1.8136541811
