  62
        -98.94528148
 C          2.2511356432        0.6636262298       -0.1755604336
 C          1.3682774669        0.9820920620        0.8795601869
 C          0.5816481328        2.2207091793        0.7350880605
 C          0.7056431797        2.9351213199       -0.3984994285
 C         -0.0619954273        4.1741892979       -0.7678574334
 C         -1.4943361860        3.8608280278       -1.2478050374
 C         -2.1842878540        2.6912805733       -0.5445300614
 H         -3.0880547905        2.4495775343       -1.1122442663
 H         -1.5421086115        1.8101085314       -0.6050802711
 C         -2.5973383586        2.9439007769        0.9042964514
 H         -3.4053908019        3.6797904416        0.9141369805
 H         -2.9933622331        2.0061336971        1.3022122213
 C         -1.4955990460        3.4485034112        1.8334771160
 H         -1.9195066569        3.5053762790        2.8403989482
 H         -1.2120888022        4.4607431264        1.5573669257
 C         -0.2634566677        2.5526221476        1.9402943033
 H          0.4155800831        2.9950898601        2.6803305123
 H         -0.5653785106        1.5850212220        2.3521516933
 H         -2.1023089827        4.7614110889       -1.1459092398
 H         -1.4409493243        3.6060822270       -2.3089358817
 H         -0.0689418238        4.8587432016        0.0763828709
 H          0.4800429956        4.6562138380       -1.5841909288
 O          1.5450284902        2.5740570831       -1.4088678107
 C          2.3334238262        1.4426208365       -1.3278385456
 O          3.0589022740        1.2400349978       -2.3245035657
 H          0.8710009749       -1.0458509763       -1.5100875811
 C          1.0177046332       -1.8278414577       -0.7797521521
 C          2.1341967963       -1.7884942695        0.0458665696
 C          2.3177433622       -2.8156853938        0.9623067737
 C          1.3829314489       -3.8318176624        1.0672239719
 C          0.2438404748       -3.8352603335        0.2827076973
 C          0.0583831338       -2.8187836505       -0.6484476403
 N         -1.0833858052       -2.7827404326       -1.4708019155
 S         -2.0124548398       -1.3976277834       -1.5921881741
 O         -3.0728016283       -1.7498810320       -2.5116867654
 O         -1.1892377091       -0.2772050646       -1.9666629702
 C         -2.7188366991       -1.1429053530        0.0278093120
 C         -4.0847300968       -1.2817223656        0.1836604784
 C         -4.6411751457       -1.1087290662        1.4405557518
 C         -3.8238638180       -0.8132417348        2.5211021026
 C         -2.4544785486       -0.6834699580        2.3493944714
 C         -1.8918297475       -0.8438467827        1.0921133873
 H         -0.8292899569       -0.7329874887        0.9420251942
 H         -1.8091817280       -0.4571665666        3.1837292496
 H         -4.2536576631       -0.6811690195        3.5014730464
 H         -5.7065166667       -1.2068671905        1.5732682026
 H         -4.6783955272       -1.5173975517       -0.6845979708
 H         -1.6848714317       -3.5892854443       -1.3785254095
 H         -0.4960883450       -4.6143210343        0.3864620077
 H          1.5346064851       -4.6230987054        1.7854536707
 H          3.1858244380       -2.8158585002        1.6008187376
 C          3.0709576399       -0.6135413280       -0.1074176236
 H          3.5803106569       -0.7015328880       -1.0785040135
 C          4.1117148347       -0.5210613306        0.9885494441
 C          5.3999215823       -1.2775173593        0.8725336340
 C          5.3885135589        0.2123616984        0.7129247986
 H          5.8139635165        0.8206337574        1.4968701153
 H          5.5176304614        0.6249311475       -0.2774976675
 H          5.8384289969       -1.6907746308        1.7682868565
 H          5.5491551500       -1.8791651983       -0.0113609042
 H          3.6702150584       -0.4049261778        1.9715093866
 O          1.2296289601        0.2556205761        1.9005028441
