  62
        -98.93949075
 C         -2.6104320916       -1.2304542041        0.1125734169
 C         -2.8033024950       -0.2669939232       -0.9063864336
 C         -4.1810618160        0.2185498628       -1.0717596080
 C         -5.1554941761       -0.2806176163       -0.2894579048
 C         -6.5893112300        0.1619874081       -0.3171765273
 C         -6.8376161252        1.3011199729        0.6814345687
 C         -5.8240031526        2.4412853727        0.5822344605
 H         -6.1160551083        3.2003864245        1.3112513160
 H         -4.8400279689        2.0720649836        0.8809996629
 C         -5.7218061542        3.0812563859       -0.8093346616
 H         -6.6052500850        2.8309770947       -1.3978151124
 H         -5.7056023045        4.1671095203       -0.6943634990
 C         -4.4652797999        2.6981237111       -1.5936660897
 H         -3.5806774439        2.8583829920       -0.9715644431
 H         -4.3847381146        3.3677008697       -2.4541642982
 C         -4.4240541763        1.2604646313       -2.1269647651
 H         -5.3412196012        1.0458527339       -2.6791064499
 H         -3.5796461769        1.1875691979       -2.8185671947
 H         -7.8437240957        1.6912320143        0.5174333731
 H         -6.7928879942        0.8908376269        1.6930259398
 H         -6.8452330644        0.4850004788       -1.3242891674
 H         -7.2169773958       -0.6889069182       -0.0471316684
 O         -4.9337631901       -1.2235938489        0.6622892781
 C         -3.6581664978       -1.7098822932        0.8974792912
 O         -3.5876457627       -2.5517010596        1.8163503690
 H          1.3357822516       -1.3487835071       -0.5587452724
 C          1.0080522160       -0.5879951086        0.1326329754
 C         -0.2612872388       -0.6565427377        0.6839701084
 C         -0.6458250595        0.3315889304        1.5864631624
 C          0.2062745415        1.3717518649        1.9030061879
 C          1.4643675941        1.4496106457        1.3317991471
 C          1.8655213261        0.4613204762        0.4445631616
 N          3.1374404676        0.5341497380       -0.1493781830
 S          4.4351035840        0.9919721687        0.8297987211
 O          4.3805294991        0.2826934037        2.0886292542
 O          4.4584576258        2.4304982982        0.9188840812
 C          5.8104893196        0.4216054475       -0.1491194454
 C          6.2655355428        1.2155049155       -1.1848386339
 C          7.3153292562        0.7591594466       -1.9659214898
 C          7.8881175843       -0.4760548031       -1.7009249709
 C          7.4208343697       -1.2611060631       -0.6575455913
 C          6.3704210170       -0.8114429189        0.1269771721
 H          5.9805787608       -1.3840095702        0.9533791458
 H          7.8698982501       -2.2196033926       -0.4525064112
 H          8.7056582498       -0.8282798699       -2.3099193345
 H          7.6832513463        1.3670495742       -2.7766695534
 H          5.7953363729        2.1711162301       -1.3482477953
 H          3.3560432160       -0.2923636701       -0.6887361791
 H          2.1393084522        2.2564308511        1.5685431132
 H         -0.1106229072        2.1327680978        2.6009847990
 H         -1.6286387841        0.2746557067        2.0357924288
 C         -1.2209304603       -1.7806996718        0.3747152887
 H         -1.3066498115       -2.4093997939        1.2735509226
 C         -0.7860799121       -2.6501709331       -0.7874972546
 C          0.1369174431       -3.8096726165       -0.5649705940
 C         -1.3096603497       -4.0511787902       -0.8726686827
 H         -1.5738295670       -4.4452599486       -1.8424670610
 H         -1.9569600809       -4.3854823155       -0.0747937663
 H          0.8649897050       -4.0444389825       -1.3270624432
 H          0.4765742065       -3.9925711668        0.4434606676
 H         -0.6987738674       -2.0914947789       -1.7124761091
 O         -1.8760599118        0.1643683409       -1.6399035504
