  62
        -98.93749904
 C         -2.0400336853       -0.8739001537        0.5179868075
 C         -2.1234173174       -0.1210170508       -0.6748938083
 C         -2.3170973033        1.3347851980       -0.5299873370
 C         -2.3744837452        1.8609834759        0.7073294691
 C         -2.5940074982        3.2995892877        1.0924963360
 C         -4.0597009173        3.7408964476        0.9348420054
 C         -4.7533373804        3.2409076893       -0.3301203750
 H         -4.6881328523        2.1518885484       -0.3666660125
 H         -5.8123063110        3.5007847592       -0.2526339136
 C         -4.2238729739        3.8254938685       -1.6371558828
 H         -4.3560579937        4.9097190445       -1.6229973498
 H         -4.8397208522        3.4251058407       -2.4463352672
 C         -2.7595523625        3.5230975869       -1.9581836946
 H         -2.0938223993        4.1288400719       -1.3493201080
 H         -2.5858224235        3.8185358155       -2.9971615229
 C         -2.3712750633        2.0508297121       -1.8579276434
 H         -3.0433380775        1.4583588189       -2.4892210949
 H         -1.3735281916        1.9231518540       -2.2964132604
 H         -4.0972827469        4.8308936367        0.9677992980
 H         -4.6182280265        3.3572875818        1.7919705350
 H         -1.9267506809        3.9378659150        0.5204851351
 H         -2.3135763863        3.3884030811        2.1445377652
 O         -2.2799172439        1.0948893482        1.8329697079
 C         -2.0932442137       -0.2714558807        1.7720462181
 O         -1.9975929788       -0.8330013156        2.8851352923
 O         -2.0456103044       -0.6376880481       -1.8214235449
 C         -1.7918576490       -2.3682804103        0.4539865827
 C         -0.5070453279       -2.6568582764       -0.2873628787
 C         -0.3325830675       -3.7809569944       -1.0847625731
 C          0.8758913286       -4.0053147669       -1.7219882105
 C          1.9271806283       -3.1185615424       -1.5856879299
 C          1.7604517252       -1.9862595486       -0.7938865385
 C          0.5585000210       -1.7783478324       -0.1394032256
 H          0.4462426886       -0.9061191791        0.4886732398
 N          2.7903725196       -1.0374173054       -0.6871517793
 S          2.7767074605        0.1357569742        0.5152602749
 O          2.7255673000       -0.4763866852        1.8260213815
 O          1.7520443716        1.1051056659        0.2155568023
 C          4.3843906019        0.8573737457        0.2441814876
 C          4.5344531411        1.7685574544       -0.7842494213
 C          5.7868297074        2.3128116040       -1.0201319545
 C          6.8628875507        1.9383818649       -0.2288778756
 C          6.6969011938        1.0244992636        0.8007549261
 C          5.4468402151        0.4757390513        1.0412814216
 H          5.2670121384       -0.2310656031        1.8353324122
 H          7.5341729881        0.7379144506        1.4163504307
 H          7.8362928155        2.3642084265       -0.4140562031
 H          5.9185923844        3.0258762891       -1.8178283102
 H          3.6666938728        2.0344437513       -1.3654268817
 H          3.7125990748       -1.4131258529       -0.8556231441
 H          2.8642813011       -3.2896631143       -2.0923180478
 H          0.9991570452       -4.8839278272       -2.3368241037
 H         -1.1435809143       -4.4800688621       -1.2080186482
 H         -1.6618446191       -2.6986737189        1.4964657285
 C         -2.9924941760       -3.0790178911       -0.1386937301
 C         -3.3723407972       -4.4514682536        0.3276156196
 C         -4.2097032694       -3.2705978683        0.7137720890
 H         -5.1820565307       -3.1529329267        0.2597286009
 H         -4.1576542234       -2.9154200610        1.7331534819
 H         -3.7748540706       -5.1475266642       -0.3928438957
 H         -2.7617291564       -4.9074053445        1.0924763399
 H         -3.1452182443       -2.8286997435       -1.1821762022
