  62
        -98.94666465
 C         -1.4941101513       -1.6275758554       -0.0852771757
 C         -1.5954756588       -0.5533529148       -1.0044299390
 C         -2.8835725223        0.1555666681       -1.0194087087
 C         -3.8895066824       -0.2484949667       -0.2243575531
 C         -5.2714466563        0.3441798309       -0.1646194431
 C         -5.3924937520        1.5678486494        0.7531070192
 C         -4.7380712414        2.8435009117        0.2216054978
 H         -5.0949329398        3.0407302107       -0.7898279949
 H         -5.0771236493        3.6668194285        0.8535070616
 C         -3.2031543718        2.8150207636        0.2304834219
 H         -2.8181929330        3.7507109402        0.6426825020
 H         -2.8533437106        2.0164475722        0.8894501345
 C         -2.5574318685        2.6347097517       -1.1433501772
 H         -2.7793747067        3.5031858996       -1.7685056234
 H         -1.4743345593        2.5931671501       -0.9985938475
 C         -3.0006157762        1.3693925856       -1.8905060929
 H         -2.3400134074        1.2302858879       -2.7497718194
 H         -4.0234950168        1.4846826628       -2.2501153380
 H         -6.4575877543        1.7634961103        0.8976126945
 H         -4.9642850301        1.3189424616        1.7268978304
 H         -5.5985574898        0.6096281435       -1.1703749721
 H         -5.9277004239       -0.4398061230        0.2197696990
 O         -3.7649813650       -1.3027173277        0.6252111628
 C         -2.5680251250       -1.9889452173        0.7342243033
 O         -2.5864316279       -2.9096448631        1.5773132459
 O         -0.6820135961       -0.1908663790       -1.7910937523
 C         -0.2399519311       -2.4626850291        0.1050468446
 C          0.7326932042       -1.8335414294        1.0769739670
 C          1.4410857636       -2.6329288811        1.9682217480
 C          2.3512915177       -2.0747326182        2.8463657766
 C          2.5819285633       -0.7109823417        2.8453822684
 C          1.8770579524        0.0988538921        1.9621404505
 C          0.9587230608       -0.4655825626        1.0866335414
 H          0.4099599456        0.1806272403        0.4215832082
 N          2.0769913161        1.4861048062        1.9555063668
 S          2.0772955269        2.3361109732        0.5121866587
 O          2.7912151059        3.5560654889        0.8311681127
 O          0.7323693138        2.5074844637        0.0307814600
 C          3.0612431609        1.3445354256       -0.5951467046
 C          4.4220204281        1.3042458045       -0.3558437206
 C          5.2231732683        0.5106480747       -1.1587232388
 C          4.6510501160       -0.2301121083       -2.1823857751
 C          3.2859321579       -0.1736745722       -2.4115882967
 C          2.4761069885        0.6200319919       -1.6121370982
 H          1.4090117161        0.6711359695       -1.7646457045
 H          2.8383173723       -0.7466492303       -3.2084635144
 H          5.2723038025       -0.8529837772       -2.8065423014
 H          6.2863664598        0.4697083915       -0.9848997262
 H          4.8282438306        1.9061053690        0.4409625991
 H          2.8096847405        1.8088691059        2.5702308415
 H          3.2909180422       -0.2712461704        3.5300608333
 H          2.8888689015       -2.7061412991        3.5370304820
 H          1.2607557392       -3.6972091450        1.9812256725
 H         -0.5800040570       -3.4096001404        0.5477777932
 C          0.4802544836       -2.7758524264       -1.1939518515
 C          1.2837773896       -4.0340076410       -1.3123667266
 C         -0.0101997595       -3.8977745786       -2.0565467516
 H          0.0134505383       -3.7706920280       -3.1282672836
 H         -0.8631580434       -4.4604826755       -1.7047957833
 H          2.2054791828       -4.0028746091       -1.8723566755
 H          1.3070584654       -4.7009744834       -0.4643329756
 H          0.8518895031       -1.8921499598       -1.6938123003
