  62
        -98.93925316
 C         -2.6370500682       -0.9379960473        0.4622026589
 C         -2.6675917260        0.2388593023        1.2511386495
 C         -3.5938471737        1.2865357605        0.8111076441
 C         -4.3368821872        1.0969559290       -0.2946158747
 C         -5.3520449147        2.0559800021       -0.8550266418
 C         -4.7542477398        3.1504383064       -1.7495745069
 C         -3.9671605660        4.2345797465       -1.0124837759
 H         -3.7921809218        5.0431821493       -1.7249061790
 H         -4.5777168220        4.6390756403       -0.2045991186
 C         -2.6154462999        3.7667350812       -0.4551469421
 H         -2.3252757738        2.8312245049       -0.9396311802
 H         -1.8467707842        4.5036320469       -0.6986012750
 C         -2.5895106726        3.5686936299        1.0605303776
 H         -2.7477061294        4.5280405819        1.5581022187
 H         -1.5985915926        3.2026243370        1.3408222284
 C         -3.6291170577        2.5697422722        1.5853606090
 H         -3.3876789425        2.3375684398        2.6254964375
 H         -4.6256375005        3.0090382424        1.5473193232
 H         -4.1126931206        2.6784978531       -2.4974338918
 H         -5.5831950695        3.6282113023       -2.2768824447
 H         -6.0421865738        1.4599045711       -1.4559713211
 H         -5.9101914251        2.5159041001       -0.0389710022
 O         -4.2596504140       -0.0356720951       -1.0406729938
 C         -3.3973788447       -1.0696422617       -0.7004963155
 O         -3.4183108288       -2.0253352852       -1.4979943447
 O         -1.9578344904        0.4020076371        2.2804226225
 C         -1.6958253534       -2.0542979513        0.8851456370
 C         -0.5161995984       -2.0714020612       -0.0563226056
 C         -0.3819165012       -2.9834062398       -1.0945860991
 C          0.7080887458       -2.9148187317       -1.9454692770
 C          1.6818060642       -1.9474102802       -1.7785039002
 C          1.5603242970       -1.0339544981       -0.7385211118
 C          0.4679876814       -1.1044669884        0.1137827047
 H          0.3634838517       -0.3900533736        0.9206405516
 N          2.5409614522       -0.0385753570       -0.5664372132
 S          4.1526789717       -0.5273710979       -0.7149678321
 O          4.4985531150       -0.5288234931       -2.1146398630
 O          4.3594594224       -1.7745619672       -0.0136818823
 C          5.0064576341        0.7998722971        0.1120912510
 C          5.4186025484        0.6282582062        1.4198790234
 C          6.0747241364        1.6693682754        2.0577207824
 C          6.3033013855        2.8582687573        1.3814734898
 C          5.8822017076        3.0158784354        0.0692418003
 C          5.2271350716        1.9785745871       -0.5750819038
 H          4.8921571881        2.0517573000       -1.5965842230
 H          6.0641898178        3.9410685000       -0.4533850602
 H          6.8159678707        3.6659703766        1.8795878134
 H          6.4060219958        1.5488148426        3.0765889660
 H          5.2278056287       -0.3166172832        1.9031966453
 H          2.3961067812        0.4932604065        0.2810502778
 H          2.5372448711       -1.8914374071       -2.4325329178
 H          0.8007286923       -3.6261933278       -2.7525901821
 H         -1.1386813409       -3.7348150779       -1.2474541125
 H         -1.3268296901       -1.7567582944        1.8767149202
 C         -2.4004943887       -3.3872850853        1.0127969301
 C         -1.7284045041       -4.5001805084        1.7581611432
 C         -2.9198722262       -3.8126979492        2.3521802667
 H         -3.8567878469       -4.3474720500        2.3944449340
 H         -2.7613874047       -3.1441922098        3.1858152683
 H         -1.8449723333       -5.5092633617        1.3937241862
 H         -0.7580228413       -4.2974498007        2.1859582913
 H         -2.9975365019       -3.6436203966        0.1466690664
