  62
        -98.93808316
 C         -2.2136895700       -0.8849501094        0.3754030710
 C         -2.4632696401       -0.1010678804       -0.7749114696
 C         -3.3528304802        1.0604992697       -0.5902746306
 C         -3.8338933703        1.3289381006        0.6359595892
 C         -4.7913668304        2.4218841608        1.0227180282
 C         -6.2394371404        1.9034067707        1.0053730787
 C         -6.9388243404        1.9918020495       -0.3505855314
 H         -7.8961716403        1.4742408594       -0.2558186710
 H         -7.1536253205        3.0386852892       -0.5751131423
 C         -6.1679413203        1.3877172886       -1.5274593509
 H         -5.7241876202        0.4365543389       -1.2279349101
 H         -6.8857220502        1.1732206978       -2.3215772307
 C         -5.0810620804        2.3213739482       -2.0809608317
 H         -5.2311482405        3.3212127185       -1.6737845225
 H         -5.1968674604        2.4074823673       -3.1632234717
 C         -3.6339221103        1.8719973286       -1.8253359113
 H         -2.9821137604        2.7519564587       -1.8207164620
 H         -3.2964921803        1.2395182279       -2.6523691908
 H         -6.8255413504        2.4768885612        1.7263684082
 H         -6.2269799702        0.8651918109        1.3471870295
 H         -4.5378810405        2.7123099117        2.0445601980
 H         -4.6743682705        3.2845265103        0.3734981175
 O         -3.5330002702        0.5694664316        1.7265920098
 C         -2.7276099601       -0.5502192484        1.6266903807
 O         -2.5369667300       -1.1485733475        2.7062510812
 O         -1.9737868501       -0.3585403713       -1.9051607994
 C         -1.3326515199       -2.1158453394        0.2756115120
 C          0.0505885401       -1.7441055596       -0.2035028583
 C          0.7655665602       -2.5028847603       -1.1208823676
 C          2.0441486201       -2.1281906905       -1.4968436379
 C          2.6374230400       -0.9966019700       -0.9689937189
 C          1.9357324499       -0.2356617893       -0.0431233795
 C          0.6583831399       -0.6167282591        0.3354723908
 H          0.1167352999       -0.0240876086        1.0641173603
 N          2.5343856098        0.9202394912        0.4985898695
 S          3.9708259398        0.6946869121        1.3470974197
 O          4.0267500899       -0.6205717774        1.9435201408
 O          4.0563121896        1.8175199228        2.2556195988
 C          5.2350923298        0.8541492812        0.1041454896
 C          5.3315597296        2.0519421706       -0.5767862714
 C          6.3128756196        2.1934949399       -1.5448405515
 C          7.1777368698        1.1422971998       -1.8114545906
 C          7.0702726699       -0.0523388396       -1.1159477396
 C          6.0898777899       -0.2011617489       -0.1471956395
 H          5.9646213300       -1.1121124885        0.4158393513
 H          7.7440749800       -0.8677943397       -1.3241472889
 H          7.9404702197        1.2553437593       -2.5655989807
 H          6.3999078095        3.1210935195       -2.0873471222
 H          4.6434204896        2.8445066608       -0.3343075520
 H          1.8974519597        1.4711400516        1.0567606491
 H          3.6289816800       -0.6964908001       -1.2659640291
 H          2.5848851802       -2.7254585810       -2.2148669274
 H          0.3204744003       -3.3883591707       -1.5439140169
 H         -1.2364715199       -2.5036379185        1.3013656324
 C         -2.0054157798       -3.1685988002       -0.5815981471
 C         -1.7754676896       -4.6248463399       -0.3144119259
 C         -3.0951183897       -4.0004525998        0.0227821236
 H         -3.9544630097       -4.2457982004       -0.5829753162
 H         -3.3301173797       -3.8273537190        1.0634091534
 H         -1.7322114295       -5.3026654506       -1.1535754453
 H         -1.1173040196       -4.8867427492        0.5004312043
 H         -2.1313898298       -2.8474795011       -1.6090638674
