  62
        -98.94170102
 C         -2.3815869240       -1.0531856509        0.1293991247
 C         -3.6414108111       -0.9433568157        0.7757983973
 C         -4.6326514044       -0.0696766267        0.1359599240
 C         -4.2975681075        0.5873432874       -0.9888228384
 C         -5.1875907226        1.5518786636       -1.7166266051
 C         -4.9797551903        2.9878665653       -1.2154511859
 C         -5.0187966578        3.1231205459        0.3067991990
 H         -4.1620324461        2.5957019557        0.7328823019
 H         -4.8917928642        4.1821187921        0.5417931626
 C         -6.3090298195        2.6054733136        0.9580059221
 H         -6.6426003691        3.3336886014        1.7002385776
 H         -7.0960320611        2.5246433937        0.2073375768
 C         -6.1607120523        1.2666081696        1.6829949944
 H         -5.3117596019        1.3139662899        2.3695465280
 H         -7.0590891872        1.1042532447        2.2843373702
 C         -5.9846961582        0.0366284916        0.7836907659
 H         -6.0863100424       -0.8518152075        1.4137524008
 H         -6.7746032635        0.0157700479        0.0300590716
 H         -4.0059655198        3.3389685558       -1.5652166747
 H         -5.7490633608        3.6225290449       -1.6591332600
 H         -4.9445505624        1.5090499654       -2.7797665565
 H         -6.2254024018        1.2544201355       -1.5786024343
 O         -3.0769125838        0.4778769590       -1.5689061967
 C         -2.0842518854       -0.3345889866       -1.0302318786
 O         -1.0240549163       -0.3184354694       -1.6835755033
 O         -3.9240402103       -1.5517298197        1.8418615394
 C         -1.3458424678       -1.9483373610        0.7891681740
 C         -0.0442248800       -1.2061512295        0.9459222384
 C          0.0969886624       -0.2836811518        1.9784114223
 C          1.2649231503        0.4412312123        2.1213183357
 C          2.3123826557        0.2688288285        1.2330240573
 C          2.1719994193       -0.6321036387        0.1865810591
 C          1.0067677738       -1.3775126846        0.0600710141
 H          0.9027274993       -2.0662276130       -0.7637617194
 N          3.2222339534       -0.8135940489       -0.7268282916
 S          4.0866378716        0.5153004806       -1.2721309554
 O          3.2956460078        1.7236340704       -1.2778458874
 O          4.6427376118        0.1025008418       -2.5427091463
 C          5.4120148324        0.6582318193       -0.0885526662
 C          6.1742688171       -0.4630807917        0.1751947918
 C          7.2158700902       -0.3664328413        1.0838094308
 C          7.4791502990        0.8437337121        1.7081879417
 C          6.7078406294        1.9615178938        1.4299951048
 C          5.6636281197        1.8708571913        0.5225388567
 H          5.0347178804        2.7126801552        0.2789937603
 H          6.9140085896        2.9019783721        1.9153895718
 H          8.2903484705        0.9164381992        2.4152667383
 H          7.8179485283       -1.2336287247        1.3024513819
 H          5.9396173049       -1.3831746745       -0.3331985536
 H          2.9862193435       -1.4267067470       -1.4937002926
 H          3.2201596219        0.8414185144        1.3299030742
 H          1.3623069860        1.1504429711        2.9293181930
 H         -0.7264335595       -0.1354662386        2.6636142658
 H         -1.7543727087       -2.1354027519        1.7954307441
 C         -1.1748281666       -3.3118907007        0.1356740643
 C         -2.3634051332       -4.0546872560       -0.3950305775
 C         -1.3164448504       -3.5451150881       -1.3374293805
 H         -0.6566551682       -4.2624682908       -1.8042394140
 H         -1.5526721131       -2.7007632320       -1.9658788670
 H         -2.4287710174       -5.1180676923       -0.2212803406
 H         -3.3166677725       -3.5469941320       -0.3703586644
 H         -0.4237158135       -3.9063318111        0.6474215600
