  62
        -98.94230255
 C         -2.0126017866       -1.0896502570       -0.1973330624
 C         -1.0648451905       -1.7253619787       -1.0289468399
 C         -0.0534297157       -2.5637803791       -0.3650987563
 C         -0.0606326987       -2.6615143248        0.9775971941
 C          0.8407615341       -3.4235243859        1.9271778904
 C          2.1375895088       -4.0591178412        1.4336948393
 C          3.2289604595       -3.0609522887        1.0458816785
 H          3.5958454543       -2.5800545238        1.9563411514
 H          4.0587755592       -3.6162451819        0.6028803154
 C          2.8046359002       -1.9514161909        0.0862774976
 H          3.6721554482       -1.3063108950       -0.0828388602
 H          2.0378273527       -1.3299014327        0.5554957275
 C          2.3075840858       -2.4239321037       -1.2780563195
 H          3.0659172348       -3.0546353254       -1.7462887295
 H          2.1757643188       -1.5357727113       -1.9013651686
 C          0.9731903392       -3.1871586739       -1.2678369393
 H          0.5543761428       -3.1457325025       -2.2778220376
 H          1.1184433360       -4.2350410012       -1.0169087842
 H          1.9330626014       -4.7429312216        0.6151401107
 H          2.5227773593       -4.6615601671        2.2610461517
 H          0.2139867483       -4.2066481916        2.3686403579
 H          1.0712857848       -2.7206732683        2.7349229955
 O         -1.0144591572       -2.0508826222        1.7391681215
 C         -1.9707517399       -1.2174381670        1.1901345635
 O         -2.7243786262       -0.6774575473        2.0241749542
 O         -1.0541375869       -1.5881272623       -2.2840736404
 C         -2.9920645338       -0.1090276995       -0.8170975281
 C         -2.6528945722        1.2815821283       -0.3336726338
 C         -3.5995921094        2.2304443881        0.0267219265
 C         -3.1983209074        3.4670149446        0.5050326029
 C         -1.8583063014        3.7719026016        0.6553009917
 C         -0.9012335176        2.8328104536        0.2834212312
 C         -1.3083566860        1.6188151798       -0.2394982291
 H         -0.5673368419        0.8863542883       -0.5201639054
 N          0.4716579152        3.1017181606        0.4183547847
 S          1.5479412680        1.9599105660        1.0243327828
 O          0.8821432533        0.7338326051        1.3886824818
 O          2.2769404514        2.6304016990        2.0829249808
 C          2.6751364629        1.6701258932       -0.3282531045
 C          4.0318622581        1.7235996457       -0.0723778984
 C          4.9245473060        1.4728450292       -1.1022439912
 C          4.4487120723        1.1732605747       -2.3692514071
 C          3.0847344181        1.1275621973       -2.6128723812
 C          2.1873930622        1.3761928464       -1.5855848391
 H          1.1229727577        1.3399928797       -1.7540260648
 H          2.7110912131        0.8950915845       -3.5976079821
 H          5.1415268328        0.9750600032       -3.1716013237
 H          5.9851112914        1.5103762460       -0.9123816802
 H          4.3563968998        1.9640693017        0.9268399501
 H          0.6713937769        4.0007856250        0.8329892459
 H         -1.5508887258        4.7238821388        1.0613806796
 H         -3.9424851051        4.1964528271        0.7872841946
 H         -4.6492998733        1.9988553290       -0.0518355082
 H         -2.8059210383       -0.1535633494       -1.9011533219
 C         -4.4264326936       -0.5097641809       -0.5504508108
 C         -5.5045466280       -0.1596236558       -1.5313455899
 C         -5.0481416979       -1.5800865424       -1.3952844867
 H         -5.7054589062       -2.2931919123       -0.9210820990
 H         -4.4428640436       -2.0020366968       -2.1842691514
 H         -6.4810251928        0.1015194612       -1.1521291094
 H         -5.2160448932        0.3804195318       -2.4204169812
 H         -4.6690976915       -0.5019235088        0.5061295591
