  62
        -98.94794788
 C         -0.7817801736       -1.2065356458        0.5805288324
 C         -1.2296593217       -0.7757401072       -0.6914591000
 C         -2.1589233194        0.3623629677       -0.6881412818
 C         -2.4959467060        0.9353473141        0.4814816238
 C         -3.5262450266        2.0152171139        0.6379676866
 C         -4.9175471671        1.4135219171        0.8848447396
 C         -5.3072123022        0.3248599441       -0.1153178564
 H         -4.6515313330       -0.5380048111        0.0225622641
 H         -6.3197548377        0.0008382338        0.1352131325
 C         -5.2599991653        0.7664097565       -1.5848996741
 H         -5.2638858042        1.8551422486       -1.6453175951
 H         -6.1629517933        0.4113397951       -2.0861059138
 C         -4.0685775756        0.2182197122       -2.3726408844
 H         -4.0137255315       -0.8658321155       -2.2451811887
 H         -4.2433329902        0.4138102874       -3.4339133505
 C         -2.7010245436        0.8143233852       -2.0144842145
 H         -1.9825074130        0.4686855663       -2.7631347677
 H         -2.7504161672        1.9033485363       -2.0593850040
 H         -5.6525490058        2.2198312235        0.8509178432
 H         -4.9357986268        0.9795006289        1.8872859722
 H         -3.2550228157        2.6359935932        1.4925593306
 H         -3.5450032007        2.6275939208       -0.2605287659
 O         -1.9794951416        0.5442979589        1.6751743558
 C         -1.1207641746       -0.5392895760        1.7562142009
 O         -0.7326462022       -0.8047474456        2.9132716097
 H          1.5947103857       -0.2411259537        0.4493076989
 C          1.9892193501       -1.0378166856       -0.1647971219
 C          1.3410048059       -2.2660161414       -0.1744667279
 C          1.8670257931       -3.2892814288       -0.9525837592
 C          3.0046707802       -3.0751465928       -1.7111652785
 C          3.6424481090       -1.8488014269       -1.7042677581
 C          3.1271518816       -0.8196849069       -0.9231482786
 N          3.7252147054        0.4460392944       -0.9219326446
 S          3.5637707343        1.4924859379        0.3618333100
 O          4.5645175475        2.5098356302        0.1154049287
 O          3.6654305094        0.8119246462        1.6323106510
 C          1.9532097778        2.2231269656        0.1650555730
 C          1.5309643973        2.5820038546       -1.0992083768
 C          0.3096169669        3.2202134951       -1.2394147199
 C         -0.4587979152        3.4971786249       -0.1196280993
 C         -0.0241896464        3.1244380874        1.1423754409
 C          1.1926779338        2.4789841233        1.2883479864
 H          1.5594577178        2.1591735133        2.2516802360
 H         -0.6252139166        3.3277721842        2.0143910771
 H         -1.4007168962        4.0102925685       -0.2279028119
 H         -0.0369225909        3.5031143147       -2.2202379903
 H          2.1560477573        2.3568238350       -1.9471468237
 H          4.6101143951        0.5235523707       -1.3994165750
 H          4.5267901219       -1.6822269175       -2.2999141101
 H          3.4013969362       -3.8763095304       -2.3161786052
 H          1.3845956976       -4.2527258843       -0.9700999565
 C          0.1127709242       -2.4273193163        0.6869653643
 H          0.4405223457       -2.4771890130        1.7365765255
 C         -0.6867288364       -3.6744986981        0.3649311496
 C         -0.3636549632       -4.9780737175        1.0292391056
 C         -1.6062111775       -4.2313125899        1.4084303779
 H         -2.5623409330       -4.6257382683        1.0984260825
 H         -1.6311457249       -3.7272829839        2.3640585639
 H          0.4530249489       -4.9909926849        1.7353249719
 H         -0.4700870474       -5.8889347820        0.4594738111
 H         -1.0280656108       -3.6930935718       -0.6640194452
 O         -0.8856287258       -1.3229454703       -1.7709778956
