  62
        -98.94497590
 C         -2.0549124698       -1.3363505436        0.0230121781
 C         -2.6358284293       -0.6672801255        1.1264862323
 C         -3.8100603962        0.1597381318        0.8287834643
 C         -4.2660401552        0.2405025143       -0.4347683280
 C         -5.4667685053        1.0230792702       -0.8930524611
 C         -5.1780050965        2.5051060266       -1.1688873919
 C         -4.9490330298        3.3656506384        0.0743516863
 H         -4.9734137487        4.4083738734       -0.2484435552
 H         -5.7747105367        3.2215296155        0.7718788831
 C         -3.6165374772        3.1022727037        0.7898028268
 H         -2.9433056463        2.5647848084        0.1171925333
 H         -3.1361012806        4.0543809691        1.0274426123
 C         -3.7441907413        2.3191021313        2.0967635401
 H         -4.3085672788        2.9085980256        2.8226074991
 H         -2.7410147916        2.1604042497        2.5011814260
 C         -4.4185374780        0.9486260489        1.9489806950
 H         -4.2625575968        0.3885674359        2.8742419052
 H         -5.4895128212        1.0720719566        1.7908256574
 H         -6.0363151776        2.9091323622       -1.7105483997
 H         -4.3079631296        2.5754118364       -1.8261512920
 H         -6.2641426905        0.9379026260       -0.1542960008
 H         -5.8026411376        0.5597026687       -1.8231652079
 O         -3.6768116109       -0.4149123366       -1.4694341965
 C         -2.5453506102       -1.1960498982       -1.2755589824
 O         -2.0884196849       -1.7019147566       -2.3171479789
 O         -2.1907219533       -0.7535039955        2.3032112295
 C         -0.8255509405       -2.1970305964        0.2533281309
 C          0.3564049556       -1.6030435850       -0.4732804375
 C          1.1877124028       -2.3287099968       -1.3152139780
 C          2.2462084929       -1.7095358558       -1.9589672599
 C          2.5056330977       -0.3652358643       -1.7701257465
 C          1.6927788485        0.3655524080       -0.9114807464
 C          0.6346440304       -0.2563621126       -0.2679216151
 H          0.0004118340        0.3153416367        0.3984472100
 N          1.9571638692        1.7279816680       -0.6957855999
 S          3.5468054431        2.1995249705       -0.4735686447
 O          3.4751423561        3.4013423171        0.3275786565
 O          4.1966463693        2.3356937910       -1.7533264766
 C          4.3068070110        0.8758264904        0.4506357140
 C          5.3830428592        0.1938974050       -0.0792034849
 C          5.9390466317       -0.8482456251        0.6455246475
 C          5.4087736807       -1.1910725804        1.8793303785
 C          4.3292020628       -0.4937847643        2.4000806089
 C          3.7710863370        0.5504202623        1.6811214946
 H          2.9337433734        1.1137377234        2.0614153034
 H          3.9172746138       -0.7611011395        3.3600449311
 H          5.8384081538       -2.0056443865        2.4406332207
 H          6.7799087207       -1.3905123893        0.2442765051
 H          5.7615116282        0.4916661361       -1.0434721191
 H          1.3437424943        2.1670559058       -0.0258210664
 H          3.3132774135        0.1336138666       -2.2806308584
 H          2.8760226385       -2.2824808565       -2.6220169636
 H          1.0008143360       -3.3768589222       -1.4788177578
 H         -0.6262576794       -2.1322946518        1.3334866579
 C         -1.1036193602       -3.6410716920       -0.1036806708
 C         -0.3413810288       -4.7421481745        0.5692230687
 C         -1.7843043465       -4.5167212959        0.9039799523
 H         -2.5152542931       -5.2309627453        0.5557163950
 H         -2.0270930959       -4.0771129787        1.8605024464
 H         -0.0815213208       -5.6166652570       -0.0077424679
 H          0.3982587960       -4.4612733053        1.3033901956
 H         -1.3811924311       -3.7680714714       -1.1438032471
