  62
        -98.94671558
 C         -2.2120755574        0.3575075133        0.0534120126
 C         -2.0122786627        1.4582651631        0.9266732334
 C         -1.2445246819        2.5892271474        0.3897332636
 C         -0.8086117635        2.5433648460       -0.8813770540
 C          0.0227920794        3.5997931683       -1.5477289515
 C          1.5225352188        3.3037498461       -1.4099021307
 C          1.9657112141        2.9770654535        0.0163800599
 H          1.5379040354        2.0204364890        0.3270484426
 H          3.0497864029        2.8398612021       -0.0033769706
 C          1.6065832426        4.0461370307        1.0580055199
 H          1.3973322644        4.9956078947        0.5628467889
 H          2.4703059578        4.2002575629        1.7082000053
 C          0.4320902775        3.6734482542        1.9655783796
 H          0.5883922757        2.6647457769        2.3596700966
 H          0.4267161135        4.3605050683        2.8165038773
 C         -0.9580543172        3.7345348068        1.3177825575
 H         -1.7019586710        3.6689601936        2.1173584090
 H         -1.0855470894        4.6916207405        0.8071684794
 H          2.0775098393        4.1714737577       -1.7712720777
 H          1.7712311771        2.4499807133       -2.0442188517
 H         -0.2363710928        3.6221373687       -2.6076639086
 H         -0.2096778123        4.5671372349       -1.1067614164
 O         -1.0497511699        1.4920272099       -1.7018754273
 C         -1.6946346647        0.3477708658       -1.2429395102
 O         -1.7335918011       -0.5690670891       -2.0832560150
 H         -0.4263027126       -0.9997605326        1.6755547538
 C         -0.6216893639       -1.8800589509        1.0796453614
 C         -1.8624351266       -2.0283668271        0.4699004236
 C         -2.1026271775       -3.1684170505       -0.2838572870
 C         -1.1109593934       -4.1233044767       -0.4328357455
 C          0.1343308992       -3.9539238980        0.1444931815
 C          0.3843557574       -2.8161675147        0.9052650196
 N          1.6365269330       -2.6142604681        1.5142230179
 S          2.4375515883       -1.1507024928        1.4174363412
 O          3.7062562955       -1.3909608164        2.0689358217
 O          1.6234481055       -0.0997264619        1.9708304362
 C          2.7136225912       -0.8649446373       -0.3200316302
 C          1.6360318485       -0.5182592261       -1.1085979317
 C          1.8276412038       -0.3256810755       -2.4669638337
 C          3.0939871584       -0.4761920008       -3.0111662218
 C          4.1689736620       -0.8224831943       -2.2058311816
 C          3.9796032392       -1.0253342702       -0.8481281724
 H          4.7850033406       -1.2956626983       -0.1846512914
 H          5.1521624485       -0.9374224042       -2.6328389809
 H          3.2408625874       -0.3220372751       -4.0685771543
 H          0.9768547957       -0.0670601702       -3.0786981657
 H          0.6614838461       -0.4055567477       -0.6606249633
 H          2.2898958050       -3.3720762754        1.3762164078
 H          0.9097942261       -4.6924828443        0.0086221593
 H         -1.3053983961       -5.0052474376       -1.0239324513
 H         -3.0548163200       -3.2962052526       -0.7717730330
 C         -2.8436696446       -0.8951194701        0.6406996787
 H         -2.9124642607       -0.6740514994        1.7196042961
 C         -4.2563536257       -1.2158369326        0.1843353355
 C         -5.1938710780       -0.1204476009       -0.2263524928
 C         -4.7134809470       -1.1143261063       -1.2386858939
 H         -5.4156976260       -1.8529285369       -1.5976133091
 H         -3.9962450562       -0.7968107697       -1.9773707788
 H         -6.2210986289       -0.1692861711        0.1026671901
 H         -4.7949544078        0.8830908941       -0.2679627199
 H         -4.6889569842       -2.0198775335        0.7729300689
 O         -2.4504228781        1.4869685693        2.1084658805
