  62
        -98.93544059
 C          0.4999324282        2.0431029263       -0.1065555621
 C          0.9463214490        0.8480847051       -0.7167014489
 C          2.3262896448        0.4228213361       -0.4011270027
 C          3.0300475877        1.0999276782        0.5224910383
 C          4.4161262610        0.8234596284        1.0467346569
 C          4.7495776470       -0.6468903306        1.3427262557
 C          5.7620248714       -1.2475755878        0.3662617805
 H          6.5271426481       -0.4977172325        0.1546921879
 H          6.2593956487       -2.0905006431        0.8510777941
 C          5.1730133656       -1.7530154819       -0.9498166812
 H          6.0064726665       -2.0047161755       -1.6098491522
 H          4.6141308964       -2.6729783470       -0.7670511283
 C          4.2522593785       -0.7696815024       -1.6755941396
 H          4.6567907101        0.2405535629       -1.6290822538
 H          4.2270793194       -1.0527779056       -2.7301434339
 C          2.8078252648       -0.7866535745       -1.1539509495
 H          2.1127119230       -0.8843962323       -1.9939147156
 H          2.6451492323       -1.6721362946       -0.5355289090
 H          5.1783877995       -0.6966184146        2.3447941576
 H          3.8339705242       -1.2356634885        1.3505917056
 H          5.1447787865        1.2374139703        0.3455910406
 H          4.4958849436        1.4156800998        1.9611710278
 O          2.5336293056        2.2118231525        1.1369014512
 C          1.2948963831        2.7281544114        0.8170310513
 O          1.0101612197        3.7837909082        1.4175173658
 O          0.2531378213        0.1485342892       -1.5027118612
 C         -0.8634126749        2.6627433583       -0.3778090943
 C         -1.9202102513        1.9638701087        0.4423775667
 C         -2.4635658318        2.5887466530        1.5600047717
 C         -3.4116966364        1.9452088885        2.3345913436
 C         -3.8296695809        0.6665504768        2.0136451753
 C         -3.2865287402        0.0309508529        0.9009210895
 C         -2.3417251567        0.6813638248        0.1197292849
 H         -1.9211842800        0.1734998791       -0.7328856088
 N         -3.6938331427       -1.2648174814        0.5694763321
 S         -2.9125181763       -2.2810677179       -0.4825448561
 O         -2.9272218713       -1.7427054516       -1.8187574505
 O         -3.6113151601       -3.5405877214       -0.3163812599
 C         -1.2397496170       -2.5349299369        0.0930730960
 C         -0.4465483314       -3.3337688475       -0.7065778014
 C          0.8185303243       -3.6865067018       -0.2695579842
 C          1.2747631785       -3.2281495383        0.9573916814
 C          0.4758704231       -2.4116580802        1.7404520649
 C         -0.7980142339       -2.0676651465        1.3127499715
 H         -1.4277827602       -1.4362946320        1.9187017645
 H          0.8357194468       -2.0420592111        2.6878773415
 H          2.2563630818       -3.5110285060        1.3067875834
 H          1.4433530765       -4.3137417418       -0.8855363517
 H         -0.8391564711       -3.6642615073       -1.6549273216
 H         -4.2567607855       -1.7528880997        1.2480896634
 H         -4.5671347060        0.1600563856        2.6170457956
 H         -3.8267686639        2.4414467603        3.1986279077
 H         -2.1229941271        3.5790686931        1.8252311278
 H         -0.7904681314        3.6970393034       -0.0146040715
 C         -1.2233585438        2.7007678343       -1.8489820463
 C         -2.2393750978        3.6970285614       -2.3173465084
 C         -0.7947134379        3.8740774689       -2.6753140933
 H         -0.4888751176        3.7008774553       -3.6961907520
 H         -0.2395273791        4.6580004168       -2.1803588107
 H         -2.9298662358        3.4008129778       -3.0921675601
 H         -2.6633706151        4.3635918801       -1.5813289657
 H         -1.2154698880        1.7297062069       -2.3262036260
