  62
        -98.93445358
 C          2.6500776610        0.2784272238        0.2145035579
 C          2.3048846067        1.1419554647       -0.8541627754
 C          1.6379639353        2.4142795553       -0.5256686884
 C          1.3852468026        2.6898814226        0.7666497989
 C          0.6942703635        3.8893842916        1.3631866299
 C         -0.8273324328        3.8544864020        1.1754925362
 C         -1.2845009201        3.5755883423       -0.2531322812
 H         -0.9620912991        2.5731808932       -0.5405198419
 H         -2.3782804790        3.5682506245       -0.2506933686
 C         -0.8255103136        4.5943075225       -1.2953889433
 H         -1.3597209750        4.3645771532       -2.2204876105
 H         -1.1282651875        5.5940411094       -0.9759979826
 C          0.6733745741        4.6119783976       -1.6150575584
 H          1.2313628972        5.2010913042       -0.8913506439
 H          0.7938469470        5.1120181668       -2.5803252022
 C          1.3070550943        3.2316290972       -1.7501437873
 H          2.2518953783        3.3269612504       -2.2984089671
 H          0.6717814567        2.5968876894       -2.3788797523
 H         -1.2349696668        4.8095753330        1.5143185267
 H         -1.2316333588        3.0637689935        1.8141540651
 H          0.9127133655        3.8700586552        2.4337008422
 H          1.1075548220        4.8072264027        0.9551420345
 O          1.7468148846        1.8375068771        1.7671030736
 C          2.3443440687        0.6076449002        1.5342084309
 O          2.5595560980       -0.0424986633        2.5745811106
 O          2.5548507617        0.8574448825       -2.0584616740
 C          3.2248917851       -1.0689162388       -0.1910811047
 C          2.1077508634       -1.9122530100       -0.7575115904
 C          2.2888268094       -2.7092706680       -1.8815334711
 C          1.2311007909       -3.4288621557       -2.4096734185
 C         -0.0322995131       -3.3375869650       -1.8533625078
 C         -0.2228404139       -2.5402253500       -0.7309687222
 C          0.8509908240       -1.8643973083       -0.1737543309
 H          0.6868278871       -1.2564150837        0.7044669872
 N         -1.4898848849       -2.3785526569       -0.1425750345
 S         -1.8567047975       -0.7969985958        0.3527320380
 O         -1.3279065550        0.1486405052       -0.6015998659
 O         -1.4488542550       -0.6346444306        1.7259021367
 C         -3.6384014033       -0.8317407682        0.2697738302
 C         -4.3302458473       -1.5079092186        1.2574605467
 C         -5.7127781780       -1.5675871897        1.1854299913
 C         -6.3768713678       -0.9533583408        0.1336082007
 C         -5.6692635144       -0.2765954767       -0.8482284590
 C         -4.2857026920       -0.2149670780       -0.7835184057
 H         -3.6921307909        0.3036095285       -1.5193388378
 H         -6.1878570408        0.2031194215       -1.6625073919
 H         -7.4530002478       -1.0004816800        0.0804976129
 H         -6.2660238325       -2.0907195994        1.9485469364
 H         -3.7708910652       -1.9597426438        2.0600747232
 H         -2.2343755053       -2.7693113148       -0.7051195906
 H         -0.8656417753       -3.8678580229       -2.2886797191
 H          1.3849291297       -4.0446008155       -3.2828077148
 H          3.2575519845       -2.7401202148       -2.3581947243
 H          3.9228402208       -0.8589894599       -1.0189991430
 C          4.0067486356       -1.7819244811        0.8988027869
 C          3.4305166027       -2.9034242083        1.7045073580
 C          4.4958551143       -3.1848432746        0.6901584399
 H          5.4851506093       -3.4390940780        1.0387435045
 H          4.1991462483       -3.6912565843       -0.2153534982
 H          3.6770579826       -2.9426430247        2.7542031420
 H          2.4189877661       -3.2117691243        1.4873420643
 H          4.6716274818       -1.1069505040        1.4264718634
