  62
        -98.93879856
 C          1.7320497109       -0.5047506561       -0.1696812061
 C          2.8697642392       -0.4083314467       -1.0112542589
 C          4.0233455908        0.3661237975       -0.5167855985
 C          3.9359162508        0.9479956837        0.6933944311
 C          4.9809493955        1.7478917369        1.4243308423
 C          6.0836765468        0.8662045729        2.0326479972
 C          6.5998543247       -0.2408625074        1.1172237901
 H          7.2904742585       -0.8570968946        1.6989700958
 H          5.7657420856       -0.8800497582        0.8222484038
 C          7.3389215896        0.2375487497       -0.1302013328
 H          7.7254155758       -0.6496722942       -0.6383167780
 H          8.1947105603        0.8456307972        0.1715410723
 C          6.5071660691        1.0354020412       -1.1367310026
 H          7.0862496419        1.0937094847       -2.0630402578
 H          6.3602378363        2.0586000710       -0.8012917867
 C          5.1675253886        0.4029486475       -1.5007257137
 H          4.7736760433        0.9087703536       -2.3907150462
 H          5.3332353202       -0.6350755212       -1.8108619086
 H          5.6799354330        0.3931804829        2.9311839090
 H          6.9123442479        1.5092492879        2.3338836908
 H          4.4667398029        2.2696823996        2.2346252963
 H          5.4047116782        2.4992658385        0.7645290617
 O          2.8211260057        0.8364918842        1.4673276333
 C          1.7031534097        0.1242590884        1.0740534621
 O          0.7825954009        0.1456852966        1.9176320148
 O          2.9294735679       -0.9631612318       -2.1415317502
 C          0.5678982896       -1.3275333020       -0.6943813482
 C         -0.5339990138       -0.4647949331       -1.2605040072
 C         -0.9535239912       -0.6092831783       -2.5774395672
 C         -1.9954190298        0.1546879224       -3.0754577325
 C         -2.6376646483        1.0801599731       -2.2722458826
 C         -2.2182881033        1.2369160639       -0.9579924024
 C         -1.1819082040        0.4636302368       -0.4580862060
 H         -0.8672409588        0.5883636901        0.5674139822
 N         -2.8755961934        2.1700234591       -0.1224078070
 S         -4.4644885487        1.7708623711        0.2379487770
 O         -5.2692554477        1.9561147112       -0.9428707896
 O         -4.8237800177        2.5693573009        1.3877210260
 C         -4.3980143393        0.0419864681        0.6691944874
 C         -4.6234180923       -0.9097151096       -0.3047754053
 C         -4.4887403813       -2.2482953164        0.0256768537
 C         -4.1302828661       -2.6086653479        1.3153524349
 C         -3.9025447453       -1.6404737793        2.2810445593
 C         -4.0316181150       -0.3003173470        1.9552673180
 H         -3.8663281353        0.4823632363        2.6786972815
 H         -3.6193725679       -1.9233236617        3.2823772922
 H         -4.0312530315       -3.6517723176        1.5727845309
 H         -4.6595335821       -3.0043554289       -0.7234501089
 H         -4.9043965282       -0.5870608022       -1.2936774070
 H         -2.3743608263        2.3263499677        0.7418085310
 H         -3.4599032906        1.6749649136       -2.6359696480
 H         -2.3105060317        0.0292307270       -4.1001051141
 H         -0.4508986567       -1.3209581879       -3.2157741910
 H          0.9878133734       -1.9178135346       -1.5196720630
 C         -0.0073590358       -2.2812423946        0.3360405398
 C         -0.7497582202       -3.4942727010       -0.1338469606
 C          0.6006560324       -3.6402976906        0.4994590861
 H          0.6664241377       -4.0578132498        1.4928321560
 H          1.4384524455       -3.8920823501       -0.1345866284
 H         -1.6166633918       -3.8109073353        0.4237658980
 H         -0.8283113643       -3.6501700789       -1.1988088549
 H         -0.3652483452       -1.7843820363        1.2283693637
