  62
        -98.94055121
 C         -2.2250324796       -0.7875021740       -0.1423130576
 C         -3.4712685566       -1.3031405454        0.2878589845
 C         -4.6603500218       -0.6582084325       -0.2793368618
 C         -4.5163150445        0.3442146758       -1.1653797146
 C         -5.6321283297        1.0776372035       -1.8595350512
 C         -6.2356088507        2.2241057174       -1.0366545864
 C         -7.1059314131        1.7893371371        0.1431567209
 H         -7.6360980378        2.6768711818        0.4941908100
 H         -7.8560096474        1.0777615175       -0.2032418383
 C         -6.3231409045        1.1852508500        1.3173245425
 H         -6.6780321131        1.6206573920        2.2541780955
 H         -5.2666792037        1.4473823637        1.2228113437
 C         -6.4471212958       -0.3328586720        1.4476276986
 H         -5.8252712251       -0.6569638878        2.2859793783
 H         -7.4821649167       -0.5977113039        1.6742754148
 C         -6.0057830788       -1.1119963210        0.2016854835
 H         -5.9231521255       -2.1682359830        0.4690168252
 H         -6.7477601512       -1.0079952798       -0.5895753016
 H         -6.8502239093        2.8220057520       -1.7135674992
 H         -5.4234020883        2.8600433584       -0.6767199277
 H         -5.2053711449        1.4970565502       -2.7731638918
 H         -6.4174807299        0.3729272446       -2.1344823299
 O         -3.2990125177        0.8054499814       -1.5605511022
 C         -2.1259381612        0.2676527559       -1.0487158080
 O         -1.0867894441        0.8070144180       -1.4768289529
 H          1.7219691206       -0.8494188187       -0.0247319463
 C          1.2622055784       -0.2065674807        0.7048706905
 C         -0.0775843726       -0.3571930825        1.0269364607
 C         -0.6372965608        0.4912133180        1.9788544836
 C          0.1177012379        1.4861050040        2.5674282175
 C          1.4438184715        1.6593528324        2.2127899588
 C          2.0183306829        0.8087454554        1.2755995900
 N          3.3822287128        0.9420120432        0.9539116085
 S          3.9986541826        0.9224623057       -0.6137818988
 O          4.0955367744        2.2845247755       -1.0989424806
 O          3.2826204589       -0.0117835452       -1.4405010749
 C          5.6338338368        0.2924582097       -0.2826022389
 C          6.7431012011        1.0964933986       -0.4538100263
 C          7.9981108835        0.5744372714       -0.1797511741
 C          8.1203439076       -0.7345936150        0.2595309594
 C          6.9960348755       -1.5298652319        0.4275806312
 C          5.7397270701       -1.0139168080        0.1546062966
 H          4.8397228226       -1.5961820501        0.2672857522
 H          7.0945760225       -2.5476416645        0.7694193581
 H          9.0974513522       -1.1390588611        0.4717746656
 H          8.8738386833        1.1896159797       -0.3102996180
 H          6.6005926331        2.1072024572       -0.8005613669
 H          3.8085072598        1.7230143409        1.4359936748
 H          2.0306857803        2.4479827208        2.6598702820
 H         -0.3305535072        2.1407583780        3.3000035726
 H         -1.6789858498        0.3651755200        2.2424582585
 C         -0.9496010483       -1.4118896695        0.3937217890
 H         -1.2745795037       -2.1119236872        1.1783105985
 C         -0.2566814424       -2.1976058074       -0.6996887996
 C          0.5857049843       -3.3885475114       -0.3561319009
 C         -0.7440164646       -3.5775097493       -1.0205309154
 H         -0.7677516868       -3.8882287683       -2.0543408181
 H         -1.5630058832       -3.9610229730       -0.4296655576
 H          1.4786076320       -3.5676026339       -0.9360816624
 H          0.6725005432       -3.6544048186        0.6865009848
 H          0.0581649149       -1.5716971933       -1.5286039977
 O         -3.5832742758       -2.2556804462        1.1051805058
