  62
        -98.93895600
 C         -2.1744491933       -1.0243735169        0.4680974871
 C         -2.3355718239       -0.2410863267       -0.6982841371
 C         -3.1352495611        0.9898387532       -0.5526030295
 C         -3.6125887914        1.3217170478        0.6593552046
 C         -4.4845465678        2.4947531456        1.0130107807
 C         -5.9707093148        2.0999185958        0.9704304651
 C         -6.6342107846        2.2355670945       -0.3994213783
 H         -7.6352466468        1.8058070656       -0.3191604387
 H         -6.7503958912        3.2948113719       -0.6380104651
 C         -5.8971311488        1.5524149460       -1.5542225236
 H         -5.5461065400        0.5689636557       -1.2366187252
 H         -6.6140231901        1.3946525162       -2.3621937708
 C         -4.7186617565        2.3784943314       -2.0912705419
 H         -4.7788182010        3.3897549236       -1.6893208444
 H         -4.8061491913        2.4714514475       -3.1757103121
 C         -3.3266579639        1.7934632225       -1.8098433255
 H         -3.0474533383        1.1106735063       -2.6187011303
 H         -2.5875771934        2.6022776131       -1.8209855049
 H         -6.0524966614        1.0672934011        1.3191940899
 H         -6.5195108564        2.7273034577        1.6756416784
 H         -4.2279732648        2.7753208808        2.0368513348
 H         -4.2811535124        3.3373068496        0.3587336835
 O         -3.3885910809        0.5630248588        1.7685576252
 C         -2.6734492761       -0.6185374704        1.7045889381
 O         -2.5423977828       -1.2028782293        2.8002361309
 O         -1.8464019546       -0.5547418643       -1.8147834652
 C         -1.3848045493       -2.3210258615        0.4143716913
 C          0.0418941812       -2.0237140579        0.0191476495
 C          0.7024493199       -2.6531838186       -1.0265551912
 C          2.0055000737       -2.3054260494       -1.3405621857
 C          2.6783244156       -1.3378079270       -0.6178946174
 C          2.0287492059       -0.7065369892        0.4353575022
 C          0.7241475048       -1.0549039228        0.7457669343
 H          0.2155768002       -0.5589591276        1.5645955715
 N          2.7097105588        0.2675643164        1.1896770571
 S          3.4131485235        1.5464868712        0.3557768992
 O          3.4810457673        2.6286794619        1.3143944974
 O          2.7167826332        1.8246349032       -0.8790932147
 C          5.0634540635        0.9707509714        0.0159847420
 C          5.8470544114        0.5760071888        1.0827812715
 C          7.1358347441        0.1302870162        0.8369780065
 C          7.6173810245        0.0899566000       -0.4632242889
 C          6.8192749425        0.4931003726       -1.5228281384
 C          5.5284300121        0.9390124053       -1.2840429779
 H          4.8689251462        1.2566041307       -2.0760533451
 H          7.1952075592        0.4613733897       -2.5328244053
 H          8.6207202828       -0.2578384350       -0.6518857404
 H          7.7593259788       -0.1840675460        1.6583468484
 H          5.4355064758        0.6268117648        2.0769799575
 H          2.1707331049        0.6174419470        1.9691628880
 H          3.6913205099       -1.0629923255       -0.8624033111
 H          2.5044558965       -2.7965133567       -2.1619776696
 H          0.1942660871       -3.4069825149       -1.6045983081
 H         -1.3756422789       -2.7108147806        1.4428638142
 C         -2.0734178074       -3.3271043413       -0.4826865195
 C         -1.8739119097       -4.7946520562       -0.2561068340
 C         -3.1865260335       -4.1557981180        0.0818522647
 H         -4.0411262681       -4.3659727659       -0.5435596335
 H         -3.4342783046       -4.0104875071        1.1235982798
 H         -1.8298506687       -5.4479346399       -1.1142503222
 H         -1.2310442047       -5.0912246992        0.5586956207
 H         -2.1810484465       -2.9732231613       -1.5012094694
