  62
        -98.94368673
 C         -1.5724173769       -1.6913348726       -0.4007241202
 C         -1.5909760034       -0.4925763668       -1.1575387918
 C         -2.8286308228        0.2982918514       -1.0693499733
 C         -3.8546286206       -0.1301618981       -0.3138449528
 C         -5.2003089439        0.5306765330       -0.1792589275
 C         -5.2547695783        1.6561249129        0.8618093550
 C         -4.5348517491        2.9436237852        0.4600742511
 H         -4.8798496464        3.2610624134       -0.5245913118
 H         -4.8306272521        3.7150110673        1.1739230994
 C         -3.0042806219        2.8326273678        0.4602487869
 H         -2.6959071875        1.9550341360        1.0335994337
 H         -2.5692900132        3.6987214828        0.9645496663
 C         -2.3630170568        2.7564538961       -0.9248585573
 H         -2.5243839065        3.6972856444       -1.4569656554
 H         -1.2875386701        2.6301748630       -0.7764183511
 C         -2.8749381012        1.6055909804       -1.8010456356
 H         -3.8893071343        1.8164850174       -2.1411559418
 H         -2.2222408774        1.5228761022       -2.6737549018
 H         -4.8376642381        1.2853290478        1.8010009923
 H         -6.3079090087        1.8904727606        1.0341494530
 H         -5.5135876939        0.9179819185       -1.1494480717
 H         -5.8984698301       -0.2524545757        0.1248509428
 O         -3.7934000163       -1.2795399137        0.4111378116
 C         -2.6541546147       -2.0660617002        0.4005449934
 O         -2.7299486521       -3.0801089832        1.1252141715
 H          0.4724819607       -0.1887189223        0.3771497872
 C          0.9398651081       -0.9761156958        0.9440593199
 C          0.5984677235       -2.2986685926        0.6998265080
 C          1.1930047529       -3.2959704829        1.4652431738
 C          2.1159159616       -2.9738413245        2.4440628416
 C          2.4577389212       -1.6553734116        2.6810784940
 C          1.8553006996       -0.6469632980        1.9341825033
 N          2.1508121615        0.6910233451        2.2033761055
 S          1.9344241579        1.9573647407        1.1413998949
 O          2.5390165192        3.0773579166        1.8331477914
 O          0.5437563932        2.1004864156        0.8013944458
 C          2.9269535536        1.5688279245       -0.2875389757
 C          4.2969600962        1.6931676154       -0.1459012033
 C          5.1152023715        1.4068139698       -1.2248454945
 C          4.5511601532        1.0080416492       -2.4280017176
 C          3.1766361521        0.8927976856       -2.5537853456
 C          2.3494382079        1.1693244740       -1.4744139630
 H          1.2783066820        1.0644797520       -1.5526242918
 H          2.7324198049        0.5857370926       -3.4869307209
 H          5.1856990201        0.7881948773       -3.2720679799
 H          6.1850642395        1.4980298895       -1.1278536868
 H          4.6921685307        2.0310644476        0.7982352846
 H          2.8962195020        0.8552011282        2.8614663361
 H          3.1705217721       -1.4014603714        3.4505298651
 H          2.5712920576       -3.7564501137        3.0315773410
 H          0.9119838361       -4.3261777520        1.3029697976
 C         -0.3959258133       -2.6529307456       -0.3780607221
 H         -0.8304743877       -3.6292623256       -0.1078273084
 C          0.2609035376       -2.8149601472       -1.7436130418
 C          1.6217764483       -2.2862725092       -2.0696886935
 C          1.4112146608       -3.7613280348       -1.9232219982
 H          1.4346548493       -4.3792019642       -2.8080303888
 H          1.8102614709       -4.2371556765       -1.0408291691
 H          1.7743837886       -1.8776409924       -3.0560662505
 H          2.1641681533       -1.7647810133       -1.2961416772
 H         -0.4705261881       -2.7846002348       -2.5445707318
 O         -0.6508537991       -0.0956826520       -1.8912423210
