  62
        -98.94390710
 C          1.7965673560        0.6588929818        0.5926982542
 C          3.0805258880        0.6037297401        1.1853895028
 C          4.2119163788        0.5216547088        0.2549423768
 C          3.9870333422        0.5331143186       -1.0717672590
 C          5.0378932127        0.4889838332       -2.1477738812
 C          5.5140999707       -0.9272204992       -2.4983635638
 C          6.4001585356       -1.5938273387       -1.4453222286
 H          6.8342228626       -2.4826896556       -1.9075571705
 H          7.2230668210       -0.9258842374       -1.1887892523
 C          5.6585267216       -2.0139838222       -0.1685989999
 H          4.5834159626       -2.0336780580       -0.3624876482
 H          5.9514777434       -3.0301170023        0.1053392777
 C          5.9278184220       -1.1226094615        1.0440541507
 H          6.9796159694       -1.1996058369        1.3282961778
 H          5.3263166192       -1.4901667102        1.8796148268
 C          5.5865568920        0.3580323298        0.8293565907
 H          6.3291860665        0.8250831114        0.1828000265
 H          5.6034197399        0.8579819947        1.8009564644
 H          6.0817003079       -0.8593743686       -3.4293395723
 H          4.6392426852       -1.5535793185       -2.6881565584
 H          4.5879901620        0.9307560418       -3.0395261753
 H          5.8922649409        1.0981521914       -1.8514103913
 O          2.7383067843        0.6095257711       -1.6024195777
 C          1.6128129573        0.6482348634       -0.7902651510
 O          0.5355387509        0.6767031032       -1.4115135120
 O          3.2703409322        0.6219983826        2.4316790172
 C          0.5791192584        0.7324830700        1.4931814393
 C         -0.3451347808       -0.4408355611        1.2754266623
 C          0.1763164553       -1.6933972394        0.9654027348
 C         -0.6539925526       -2.7762668645        0.7453387238
 C         -2.0276562535       -2.6407062788        0.8454896090
 C         -2.5581138595       -1.4040533435        1.1808055371
 C         -1.7221400087       -0.3148378792        1.3943650007
 H         -2.1552934950        0.6405993667        1.6484303278
 N         -3.9626379213       -1.2712444709        1.2829953601
 S         -4.7936262034       -1.2437953583       -0.1739017725
 O         -6.1937461989       -1.1425542870        0.1693848652
 O         -4.4022015575       -2.3909686833       -0.9502245996
 C         -4.2518631927        0.2677582920       -0.9491848524
 C         -5.0559107283        1.3886969975       -0.8724647851
 C         -4.5868294073        2.5853107429       -1.3889821166
 C         -3.3196097921        2.6453593540       -1.9506804011
 C         -2.5222404033        1.5130735336       -2.0151606201
 C         -2.9925326106        0.3098280566       -1.5128190572
 H         -2.3873599463       -0.5814477097       -1.5516183314
 H         -1.5238372115        1.5503155386       -2.4212430641
 H         -2.9477783865        3.5806817842       -2.3393338636
 H         -5.2037780687        3.4685487113       -1.3443543918
 H         -6.0296234625        1.2974867378       -0.4185090278
 H         -4.2466898200       -0.4696774707        1.8303940043
 H         -2.6924359985       -3.4672063862        0.6556948016
 H         -0.2280882897       -3.7359366023        0.4933028636
 H          1.2488863277       -1.8085389516        0.8870497403
 H          0.9737829480        0.6695832552        2.5191165777
 C         -0.1173689434        2.0682782515        1.3194208499
 C         -0.7756169106        2.7463981846        2.4830940730
 C          0.5035808951        3.2905092403        1.9238978586
 H          0.4747412655        4.2143206417        1.3662807640
 H          1.4109270551        3.1533891145        2.4941235864
 H         -1.6851447168        3.3019386317        2.3088981017
 H         -0.7349582748        2.2519123617        3.4421695145
 H         -0.5754344792        2.1706166862        0.3417386507
