  62
        -98.94473071
 C         -1.9538910207       -0.8414989607       -0.4459439215
 C         -1.0869528057       -1.6828900460       -1.1863592145
 C         -0.3766392931       -2.7146289799       -0.4261642938
 C         -0.5504867852       -2.7966312609        0.9049470801
 C          0.1142933170       -3.7842598173        1.8247157454
 C          1.5217434745       -3.3548417748        2.2616112715
 C          2.6036550427       -3.4965866950        1.1899849194
 H          2.5584194513       -4.4966220072        0.7566655834
 H          3.5669337888       -3.4019347257        1.6953795881
 C          2.5285772926       -2.4419114217        0.0769212152
 H          3.5300345123       -2.0534439968       -0.1207776841
 H          1.9229516041       -1.5977498828        0.4185671147
 C          1.9788791135       -2.9538548725       -1.2546164056
 H          2.6697623582       -3.6873315051       -1.6764918854
 H          1.9194108443       -2.1081411268       -1.9444991654
 C          0.5876456914       -3.5928909806       -1.1654557735
 H          0.6519475082       -4.5704100325       -0.6878422767
 H          0.2057734110       -3.7222331718       -2.1813368808
 H          1.8020394192       -3.9717960682        3.1189747704
 H          1.4786670429       -2.3146022475        2.5962002024
 H          0.1596426063       -4.7640809555        1.3478872496
 H         -0.5164383444       -3.8566808953        2.7134531754
 O         -1.3870232797       -1.9705017829        1.5834708414
 C         -2.0660687510       -0.9439117186        0.9426237640
 O         -2.7350981445       -0.2281056558        1.7123491506
 O         -0.9070683402       -1.5677528743       -2.4292965292
 C         -2.6180935980        0.3056643459       -1.1892599335
 C         -2.2976943635        1.5906421860       -0.4682527937
 C         -3.2413967690        2.5258016389       -0.0691555706
 C         -2.8506798894        3.6480909995        0.6423552200
 C         -1.5268676535        3.8481648282        0.9849406631
 C         -0.5725554077        2.9193529032        0.5813869990
 C         -0.9598524281        1.8241961131       -0.1694557456
 H         -0.2207162718        1.0961791395       -0.4729905191
 N          0.7830258535        3.0919009442        0.9017210638
 S          1.8073798615        1.7986525601        1.1767554656
 O          1.0996358948        0.5921781571        1.5380135715
 O          2.7626654056        2.2827119967        2.1527092001
 C          2.6697705201        1.5530428315       -0.3653467469
 C          3.8212041448        0.7909567361       -0.3122943393
 C          4.5279805587        0.5507865367       -1.4791606489
 C          4.0738105770        1.0765478113       -2.6788688942
 C          2.9227763085        1.8469701564       -2.7151962197
 C          2.2110675529        2.0916150676       -1.5498262133
 H          1.3145778659        2.6894857733       -1.5579103106
 H          2.5715778943        2.2591359429       -3.6476093397
 H          4.6207264228        0.8869500360       -3.5888735208
 H          5.4269582532       -0.0438012793       -1.4494734530
 H          4.1401744194        0.4088799464        0.6443224106
 H          0.9802932648        3.8530918634        1.5338453142
 H         -1.2303759843        4.7067960681        1.5680352438
 H         -3.5933190549        4.3663449344        0.9554627871
 H         -4.2845107173        2.3641887526       -0.2855824431
 H         -2.1004909273        0.3251807691       -2.1638851182
 C         -4.0953410399        0.1171777565       -1.4939982154
 C         -4.7012727173       -1.2522791352       -1.5560722724
 C         -5.0858719390       -0.3122052360       -0.4551643086
 H         -6.0735957866        0.1250065819       -0.4793330765
 H         -4.7142712732       -0.5011796018        0.5392664907
 H         -5.4212222911       -1.4613300525       -2.3331203536
 H         -4.0653106232       -2.0906403789       -1.3102458987
 H         -4.4490748633        0.8282276325       -2.2345254532
