  62
        -98.93957212
 C         -1.0575139008       -1.7434771995        0.4371029499
 C         -1.4409769305       -0.5668900391        1.1234369494
 C         -2.7167559301        0.0503917414        0.7175121888
 C         -3.4250221300       -0.5157044286       -0.2751396613
 C         -4.7252661796       -0.0482486782       -0.8704794218
 C         -4.4791274888        0.8675971113       -2.0814407721
 C         -4.3252838682        2.3499121714       -1.7455808125
 H         -4.0456525576        2.8639722409       -2.6679791726
 H         -5.2919519281        2.7473730819       -1.4290696529
 C         -3.2856596684        2.6706009712       -0.6690675723
 H         -3.0155493678        3.7225362511       -0.7728027325
 H         -2.3819355486        2.0834146207       -0.8420743218
 C         -3.7979810489        2.4269957219        0.7577857177
 H         -3.6376793287        3.3228819821        1.3608499874
 H         -4.8750170590        2.2649433624        0.7314699674
 C         -3.1177764397        1.2714164819        1.5005483182
 H         -2.1853998297        1.6265964516        1.9500511784
 H         -3.7607429601        0.9528588724        2.3285067981
 H         -5.3163330286        0.7627553515       -2.7746694223
 H         -3.5831617188        0.5103893107       -2.5956618716
 H         -5.2441653399       -0.9457872180       -1.2137525817
 H         -5.3400888296        0.4433206924       -0.1226950622
 O         -2.9980021303       -1.6274206190       -0.9363397508
 C         -1.8121991507       -2.2636461995       -0.6139117402
 O         -1.5604096910       -3.2583194198       -1.3196750498
 H          1.4180151100       -0.1067776507        0.2764252401
 C          1.7465725699       -0.8722275111       -0.4116109895
 C          1.2542257892       -2.1647894008       -0.2720800592
 C          1.6744336490       -3.1404217013       -1.1661489088
 C          2.5638646595       -2.8205737521       -2.1773798686
 C          3.0653646601       -1.5380251224       -2.3021865889
 C          2.6542263403       -0.5547475119       -1.4084012593
 N          3.1342230710        0.7599523879       -1.5069530096
 S          3.5203403409        1.5992543782       -0.1086393798
 O          4.4531419116        2.6159700876       -0.5500749098
 O          3.9994652502        0.7116846583        0.9254236007
 C          2.0101884912        2.3961059290        0.3874750195
 C          1.3188665218        3.1288354491       -0.5571083210
 C          0.1693255020        3.7977360097       -0.1719783815
 C         -0.2637654584        3.7271897704        1.1435444783
 C          0.4420257709        2.9885775903        2.0793093188
 C          1.5920418907        2.3155039997        1.6998183194
 H          2.1618445302        1.7195441196        2.3949699798
 H          0.1005725606        2.9230198708        3.0998490087
 H         -1.1590936783        4.2497339509        1.4410722379
 H         -0.3855030575        4.3713417398       -0.8968807219
 H          1.6897749022        3.1628147085       -1.5681142208
 H          3.8240956413        0.9061197673       -2.2297833494
 H          3.7675236105       -1.2948860229       -3.0854478487
 H          2.8779979593       -3.5842625625       -2.8728593682
 H          1.2934756185       -4.1444719211       -1.0812680686
 C          0.2505057587       -2.4122745300        0.8266011405
 H          0.5976385987       -1.8744303498        1.7203088905
 C          0.0659875979       -3.8718249398        1.1794242510
 C          1.1376313273       -4.5797433100        1.9516559115
 C         -0.1687074327       -4.2532539992        2.6090293710
 H         -0.8555755032       -5.0589391988        2.8207158211
 H         -0.1878408926       -3.4596871489        3.3417570807
 H          2.0069101075       -4.0055549504        2.2360247616
 H          1.3502820569       -5.6109692402        1.7145980719
 H         -0.4711724021       -4.4309518798        0.4231510210
 O         -0.7478708905       -0.0525509091        2.0421126494
