  62
        -98.94046723
 C         -2.5167297773       -1.2625520491        0.1197146053
 C         -3.4056590273       -0.6504384264        1.0429283257
 C         -4.3971518210        0.2724632961        0.4821280334
 C         -4.4384421287        0.4755865599       -0.8467310857
 C         -5.4092847235        1.3612680105       -1.5793760726
 C         -5.0025532824        2.8408730172       -1.6132792885
 C         -5.1477499064        3.5861371561       -0.2858296469
 H         -5.0406485775        4.6506716842       -0.5034099170
 H         -6.1536526687        3.4337961304        0.1064674080
 C         -4.1128079951        3.1934136800        0.7779026655
 H         -3.2784508399        2.6735633289        0.3009832613
 H         -3.7047072879        4.0954236191        1.2393030082
 C         -4.6615377243        2.3175522998        1.9043903960
 H         -3.8368558577        2.0691068946        2.5772231969
 H         -5.4054726823        2.8778358842        2.4749161001
 C         -5.2977278165        1.0042546999        1.4306532668
 H         -5.4523429459        0.3636363725        2.3021913579
 H         -6.2628611187        1.1999929592        0.9638384614
 H         -3.9687950284        2.9111680821       -1.9598082957
 H         -5.6352643615        3.3351267088       -2.3541622939
 H         -5.4525806723        0.9921692441       -2.6064208578
 H         -6.3997678346        1.2651931563       -1.1336813247
 O         -3.5827803581       -0.1408279201       -1.7027352280
 C         -2.5891475618       -1.0018692193       -1.2490009411
 O         -1.8675232032       -1.4459297780       -2.1630560041
 O         -3.3759482894       -0.8777978363        2.2813101891
 C         -1.4942181541       -2.2223310150        0.7018869860
 C         -0.1727352975       -1.5457070320        0.9625440873
 C          0.4709675689       -1.6811120988        2.1868128161
 C          1.6994987068       -1.0824136270        2.4066047217
 C          2.3092173557       -0.3378117580        1.4129850552
 C          1.6732156971       -0.1942256720        0.1866917367
 C          0.4416008253       -0.7943769329       -0.0300328117
 H         -0.0417290032       -0.6915939957       -0.9910401869
 N          2.2863748052        0.5642513984       -0.8302191543
 S          3.8201465109        0.0650487711       -1.3116862895
 O          3.9751414685        0.5483582320       -2.6660660647
 O          3.9963936470       -1.3548054360       -1.1098976353
 C          4.9171746177        0.9735308264       -0.2432588345
 C          5.8257450527        0.2978049671        0.5476035463
 C          6.6748313639        1.0277322821        1.3651205107
 C          6.6007306251        2.4121934165        1.3766861806
 C          5.6843051232        3.0756759700        0.5741094564
 C          4.8338223019        2.3522589724       -0.2465502431
 H          4.1105969998        2.8278296856       -0.8878760702
 H          5.6296488039        4.1523582078        0.5855311297
 H          7.2613304083        2.9778817886        2.0145868706
 H          7.3883205528        0.5139709913        1.9891058152
 H          5.8424351656       -0.7796680364        0.5094164394
 H          1.6958897379        0.6780185103       -1.6426822491
 H          3.2659275754        0.1303919322        1.5773459296
 H          2.1878523388       -1.1960472083        3.3622056814
 H         -0.0024064792       -2.2539914332        2.9707212636
 H         -1.9136061551       -2.5110171754        1.6787690009
 C         -1.3432512998       -3.4975443462       -0.1182802725
 C         -0.1205028566       -3.8438790669       -0.9090486230
 C         -0.4310863367       -4.5922905309        0.3505017865
 H         -0.7681051194       -5.6150682359        0.2778216149
 H          0.1871640704       -4.3884935015        1.2116967931
 H         -0.2642710480       -4.3358941189       -1.8592218648
 H          0.7133128897       -3.1583037164       -0.9049038030
 H         -2.2892992926       -3.8084230081       -0.5509357435
