  62
        -98.94325224
 C         -2.5138574100       -1.0076906494       -0.1709671391
 C         -3.6651333126       -0.8992436325        0.6453417392
 C         -4.7254527787       -0.0204554908        0.1403411658
 C         -4.5672116609        0.6054781491       -1.0403581927
 C         -5.5690724264        1.5135916564       -1.7006496507
 C         -5.5201816002        2.9650957319       -1.2040711096
 C         -6.0758355191        3.1909608156        0.2025833720
 H         -6.1815646540        4.2694416740        0.3357564027
 H         -7.0730468508        2.7553934134        0.2727568362
 C         -5.1904915146        2.6395458151        1.3288838838
 H         -5.0955309452        3.3890300624        2.1178609759
 H         -4.1855527342        2.4522903868        0.9433119930
 C         -5.7171632098        1.3608203804        1.9804650601
 H         -4.9964292290        1.0388768023        2.7366104963
 H         -6.6630103917        1.5692911814        2.4854029944
 C         -5.9311632676        0.1966634724        1.0041670536
 H         -6.0911366227       -0.7141457300        1.5864543857
 H         -6.8126522327        0.3781770989        0.3897121535
 H         -4.4860217315        3.3143153077       -1.2479135569
 H         -6.1045216437        3.5678824610       -1.9030709529
 H         -6.5738075810        1.1136560223       -1.5611050059
 H         -5.3371353152        1.5073087083       -2.7677909276
 O         -3.4504929976        0.4624110868       -1.8025984282
 C         -2.3906480049       -0.3288052605       -1.3830651674
 O         -1.4239349180       -0.3490395314       -2.1681094850
 O         -3.7991343256       -1.5073830638        1.7411239593
 C         -1.3685582505       -1.8899256737        0.2921040654
 C         -0.1183868406       -1.0618749062        0.4567898607
 C         -0.1583893980        0.0443936997        1.3025081126
 C          0.9575472157        0.8370881453        1.4844030055
 C          2.1410420147        0.5466700330        0.8271015918
 C          2.1965095195       -0.5591481624       -0.0083966192
 C          1.0727485076       -1.3587151154       -0.1845999297
 H          1.1336764073       -2.2127340243       -0.8409820720
 N          3.3895679657       -0.8563908965       -0.6847184767
 S          4.8391385772       -0.8336715608        0.1554378222
 O          5.7170057550       -1.7129048734       -0.5855489152
 O          4.6465384435       -1.1476225862        1.5520463110
 C          5.4165740831        0.8414272707       -0.0211883469
 C          5.7460347304        1.5780610852        1.0995642977
 C          6.2089996995        2.8746675121        0.9375083636
 C          6.3348341085        3.4082230033       -0.3358706923
 C          6.0017723368        2.6544438970       -1.4515676784
 C          5.5391503475        1.3575832452       -1.2963208155
 H          5.2732093098        0.7395678646       -2.1376701983
 H          6.1006027798        3.0728575522       -2.4403237583
 H          6.6949579663        4.4173329314       -0.4599575382
 H          6.4688031299        3.4621717411        1.8034668965
 H          5.6282697588        1.1235243427        2.0704896638
 H          3.3293999797       -1.6553199230       -1.2985279268
 H          3.0146605911        1.1635521520        0.9601574383
 H          0.9075938540        1.6924279733        2.1412243569
 H         -1.0830346226        0.2734971298        1.8149629035
 H         -1.6666300138       -2.2555283443        1.2859763752
 C         -1.2078918602       -3.0778934375       -0.6322834441
 C         -0.5850236897       -4.3445155370       -0.1278653751
 C         -2.0566313434       -4.2914303946       -0.4057531032
 H         -2.4395656843       -4.8204772493       -1.2655018496
 H         -2.7369817185       -4.2716693052        0.4329457923
 H          0.0419304265       -4.9153989409       -0.7965224545
 H         -0.2630577945       -4.3667632183        0.9024595886
 H         -1.0200955143       -2.7865654414       -1.6598374980
