  62
        -98.94512060
 C         -2.4501855161       -1.1859766468       -0.0734834339
 C         -3.5535532612       -0.8399334250        0.7468069157
 C         -4.4584008594        0.1866390608        0.2155890473
 C         -4.1958845591        0.7358031223       -0.9844370860
 C         -4.9982641026        1.8345404696       -1.6177778532
 C         -4.4462798241        3.2155536676       -1.2372665435
 C         -4.2111473129        3.3960201642        0.2625488044
 H         -3.4090796035        2.7253361324        0.5801994270
 H         -3.8526250911        4.4165212343        0.4140477800
 C         -5.4515787014        3.1542888919        1.1341551373
 H         -5.5181287888        3.9525196738        1.8763190458
 H         -6.3513168791        3.2069569285        0.5201555341
 C         -5.4386319890        1.8313981271        1.9021758414
 H         -4.4948381666        1.7323066798        2.4442057349
 H         -6.2409966831        1.8611974169        2.6440149136
 C         -5.6438578991        0.5679443574        1.0570906170
 H         -5.8048828582       -0.2682212319        1.7436639799
 H         -6.5354852124        0.6805368728        0.4372010499
 H         -5.1445587177        3.9757014855       -1.5923371855
 H         -3.4936312195        3.3617901061       -1.7521877134
 H         -4.9453732484        1.7184347134       -2.7016041335
 H         -6.0362069809        1.7472077161       -1.3025024264
 O         -3.1300389713        0.3780050460       -1.7444408860
 C         -2.2260216684       -0.5812494093       -1.3103059842
 O         -1.2982246044       -0.8009793062       -2.1135062460
 H          0.7903974524       -2.0643654583       -1.1020480704
 C          0.8838352841       -1.5305110417       -0.1697344518
 C         -0.1643595303       -1.5355701580        0.7364739829
 C         -0.0279925429       -0.8098427952        1.9171769804
 C          1.1294998600       -0.1029858943        2.1815025559
 C          2.1720896746       -0.0952461353        1.2705062999
 C          2.0385109290       -0.8008601680        0.0831113374
 N          3.0853057505       -0.7902231660       -0.8547161851
 S          3.7915218248        0.6825768827       -1.2415943919
 O          2.8717176913        1.7847327578       -1.0777174899
 O          4.3484787592        0.4984783829       -2.5643808391
 C          5.1283117598        0.8233346647       -0.0713858644
 C          5.2705392746        1.9761212441        0.6758392890
 C          6.3248324898        2.0694175741        1.5712598341
 C          7.2144450924        1.0141970761        1.7019899054
 C          7.0594464356       -0.1358024664        0.9422091691
 C          6.0084872386       -0.2348639569        0.0446191451
 H          5.8541466094       -1.1093910615       -0.5649229205
 H          7.7531276185       -0.9544119844        1.0468650549
 H          8.0332139017        1.0888322787        2.4000588522
 H          6.4465230644        2.9630373629        2.1621790088
 H          4.5504544971        2.7683342705        0.5448673902
 H          2.8725783852       -1.3094529159       -1.6947599520
 H          3.0724683515        0.4648939772        1.4631376697
 H          1.2222664487        0.4514379142        3.1030401234
 H         -0.8508129380       -0.7974323167        2.6185415137
 C         -1.4729228479       -2.2276426735        0.4476424036
 H         -1.8970602478       -2.5701341370        1.4011198215
 C         -1.3536578055       -3.4138745531       -0.4852299249
 C         -0.7313553660       -4.6815121947        0.0166842393
 C         -2.2058419182       -4.6220338649       -0.2429791188
 H         -2.6024015179       -5.1507010613       -1.0968545958
 H         -2.8749591975       -4.5988979628        0.6045354043
 H         -0.1133115627       -5.2552851052       -0.6568188820
 H         -0.3978254263       -4.6977435707        1.0431097262
 H         -1.1786105807       -3.1342545054       -1.5171491093
 O         -3.7714134259       -1.3681674510        1.8693801121
