  62
        -98.93180630
 C          2.4498485444        0.7627572778        0.3853365476
 C          2.5058920754       -0.3390050332        1.2735673743
 C          3.1404899606       -1.5550797330        0.7553625260
 C          3.6456740809       -1.5619685028       -0.4916822918
 C          4.3608017841       -2.7097884547       -1.1520293091
 C          3.4266904524       -3.7393457809       -1.8017443036
 C          2.6593177846       -4.6282771559       -0.8225215288
 H          2.2151864936       -5.4382945033       -1.4042314002
 H          3.3579752015       -5.0784335141       -0.1166889103
 C          1.5438984604       -3.9056201802       -0.0540266796
 H          1.2981009237       -2.9662519680       -0.5556186818
 H          0.6363661037       -4.5135343688       -0.0646037059
 C          1.8674144653       -3.6087127243        1.4104100665
 H          1.0250510550       -3.0559838731        1.8363654896
 H          1.9690060125       -4.5463576287        1.9619437495
 C          3.1396353274       -2.7773492240        1.6226486632
 H          4.0230477837       -3.3851645277        1.4270422346
 H          3.1634943445       -2.4467902634        2.6640746614
 H          2.7187557871       -3.2113038308       -2.4445755704
 H          4.0409832903       -4.3809292692       -2.4375945192
 H          5.0025506363       -3.2070550553       -0.4242389502
 H          4.9892480959       -2.2747749202       -1.9319980561
 O          3.5831914929       -0.4798539172       -1.3102266288
 C          2.9630507261        0.6984492921       -0.9105484455
 O          2.9508872252        1.5810458816       -1.7860483600
 O          2.0550308724       -0.3027716844        2.4518601641
 C          1.7651394347        2.0343273082        0.8708212968
 C          0.6676784103        2.3901674201       -0.1015973709
 C          0.6672123195        3.4205622110       -1.0325073442
 C         -0.4165106933        3.6065674940       -1.8753855989
 C         -1.5195903765        2.7782311640       -1.8184108549
 C         -1.5215610753        1.7215113903       -0.9129463791
 C         -0.4392492004        1.5432676478       -0.0692947148
 H         -0.4536396950        0.7184461414        0.6303187464
 N         -2.6010564594        0.8244162661       -0.8718856462
 S         -2.9336790096       -0.0328690796        0.5390936146
 O         -2.9422096792        0.8583912979        1.6780012695
 O         -2.0471799547       -1.1670107914        0.6129025915
 C         -4.5927162834       -0.5821125170        0.1847731737
 C         -5.6619312805        0.1628951779        0.6455828709
 C         -6.9490981626       -0.2510752401        0.3408697102
 C         -7.1443766462       -1.3954335207       -0.4177903485
 C         -6.0616224866       -2.1339444166       -0.8718029092
 C         -4.7719925362       -1.7259109345       -0.5698453665
 H         -3.9002217583       -2.2716190607       -0.8918575820
 H         -6.2169442337       -3.0250636799       -1.4582989308
 H         -8.1467803210       -1.7159383499       -0.6537028175
 H         -7.7926068423        0.3187062159        0.6959037467
 H         -5.4612537305        1.0393434387        1.2405391312
 H         -3.4373475251        1.1859039641       -1.3086499582
 H         -2.3613474511        2.9303111831       -2.4764443545
 H         -0.3959833302        4.4157682559       -2.5897798573
 H          1.5151771870        4.0720785472       -1.1358760752
 H          1.2567156734        1.7249658470        1.8000477388
 C          2.8062287285        3.0529936713        1.3111175874
 C          3.6421712993        3.8987896674        0.4011399697
 C          2.6188741587        4.5397433212        1.2919075661
 H          2.9728439445        5.1012427365        2.1439548626
 H          1.7167056969        4.9353143073        0.8547298575
 H          4.6854833293        4.0208027856        0.6559888675
 H          3.4716349292        3.8256207755       -0.6603015950
 H          3.3310058223        2.6576781202        2.1787343209
