  62
        -98.94352084
 C          1.8779355687        0.8729015096       -0.5731050692
 C          3.2146266289        1.2641995656       -0.3251037554
 C          4.2162710769        0.1943626372       -0.3973505208
 C          3.8342920395       -1.0583760795       -0.7065307657
 C          4.7420397933       -2.2502357923       -0.8470768106
 C          5.0682542146       -2.9470953257        0.4808770420
 C          6.0256175553       -2.1839553586        1.3970898901
 H          6.3354410724       -2.8747082053        2.1838925880
 H          6.9195068505       -1.9068947000        0.8373132406
 C          5.4166387818       -0.9347890553        2.0493216659
 H          4.3272777881       -0.9824717179        1.9798622619
 H          5.6679694000       -0.9193523154        3.1123321583
 C          5.8940540604        0.3891944294        1.4521758343
 H          6.9644718685        0.5080789274        1.6341988040
 H          5.3740964954        1.2033317666        1.9639267261
 C          5.6351145325        0.5337138084       -0.0533876610
 H          5.8048877233        1.5768029344       -0.3316213105
 H          6.3255008644       -0.0947191522       -0.6156305861
 H          5.5215829566       -3.9115258109        0.2403847422
 H          4.1338769752       -3.1426207291        1.0122224128
 H          5.6678988794       -1.9502437916       -1.3386644200
 H          4.2217646997       -2.9629251795       -1.4905545261
 O          2.5397025155       -1.3904859906       -0.9538673309
 C          1.5268710700       -0.4436254931       -0.8724414300
 O          0.3870878973       -0.8918913274       -1.0889565095
 O          3.5530479624        2.4481878222       -0.0550614502
 C          0.7792710894        1.9169816148       -0.5035495254
 C         -0.2567406674        1.5207387469        0.5188562634
 C          0.1661068101        1.0891460244        1.7735368236
 C         -0.7463742670        0.7060235223        2.7373287075
 C         -2.1052656712        0.7552832445        2.4782025005
 C         -2.5393870150        1.1908421521        1.2338957003
 C         -1.6184583752        1.5738071146        0.2648773757
 H         -1.9750744208        1.9102073018       -0.6962313344
 N         -3.9221712145        1.2638479826        0.9699619289
 S         -4.8436979510       -0.1321564325        1.0253464812
 O         -6.1911062905        0.2863539220        0.7133118988
 O         -4.6514760125       -0.7732694740        2.3005652009
 C         -4.2196070855       -1.1628613749       -0.2902352523
 C         -2.9656493782       -1.7256983812       -0.1590334640
 C         -2.4553658221       -2.4752524440       -1.2067138330
 C         -3.2076975384       -2.6538018583       -2.3574788925
 C         -4.4685239652       -2.0875099159       -2.4716609403
 C         -4.9787375944       -1.3269110402       -1.4322832965
 H         -5.9502151235       -0.8616794395       -1.4792608714
 H         -5.0500561771       -2.2307425377       -3.3683715743
 H         -2.8042963408       -3.2364564364       -3.1708792859
 H         -1.4623342628       -2.8861013977       -1.1256801522
 H         -2.3987351391       -1.5694391096        0.7444074553
 H         -4.1405817624        1.7686840848        0.1221367426
 H         -2.8297738322        0.4454490495        3.2131617571
 H         -0.3991503565        0.3689069017        3.7026820068
 H          1.2269735238        1.0521920691        1.9818441705
 H          1.2716132210        2.8364454293       -0.1526573214
 C          0.2095723034        2.1678621204       -1.8842974031
 C         -0.3584904362        3.5091919177       -2.2384219375
 C          0.9532589785        3.0740070034       -2.8174040631
 H          0.9964593672        2.8141832976       -3.8644169295
 H          1.8568382417        3.5341021537       -2.4449437177
 H         -1.2160451596        3.5510234550       -2.8933212868
 H         -0.3465125488        4.2750911518       -1.4776002445
 H         -0.2539603409        1.2841266239       -2.3093782566
