  62
        -98.93973035
 C         -1.7098487046       -1.5577623608        0.1753256714
 C         -1.5431892084       -0.2349305029       -0.2961299997
 C         -2.5957951904        0.7298799666        0.0759112589
 C         -3.6383728450        0.3206970146        0.8221314705
 C         -4.8275139738        1.0781824316        1.3757668979
 C         -5.1712721741        2.4754385020        0.8661513550
 C         -5.6531555947        2.5273590738       -0.5833950633
 H         -5.7705234667        3.5755492559       -0.8671787543
 H         -6.6380449701        2.0565388346       -0.6389342145
 C         -4.7534245423        1.8336954117       -1.6032342260
 H         -5.2193816618        1.9411543705       -2.5866475908
 H         -4.7083084165        0.7647085076       -1.3850666915
 C         -3.3309003122        2.3814979343       -1.6996870671
 H         -3.3642560019        3.4573970243       -1.8815631881
 H         -2.8560841063        1.9101744624       -2.5643151578
 C         -2.4349710507        2.1162493074       -0.4774124411
 H         -2.5964953223        2.8595147328        0.2991991069
 H         -1.3924293193        2.1916332488       -0.7982602927
 H         -4.3311941115        3.1474936887        1.0134186008
 H         -5.9851641300        2.8441125558        1.4965045263
 H         -5.6917502352        0.4220448518        1.2303841830
 H         -4.6648939502        1.1349532497        2.4578458563
 O         -3.7455049590       -0.9674423481        1.2652064980
 C         -2.7989913791       -1.9278821687        0.9625868289
 O         -3.0353199606       -3.0544062976        1.4440230158
 H          1.6088517211       -1.7659862086       -1.4302678529
 C          1.6994126957       -1.7556875123       -0.3560096670
 C          0.6458305303       -2.1869469055        0.4323403676
 C          0.7889991640       -2.1469472018        1.8168642714
 C          1.9583684572       -1.6901927705        2.3938020790
 C          3.0058178393       -1.2496705967        1.6028000770
 C          2.8676933026       -1.2752170631        0.2221223500
 N          3.9181389736       -0.8138566307       -0.5936918665
 S          4.5622853666        0.6973917295       -0.2700257858
 O          5.2683850012        1.0685229661       -1.4757778620
 O          5.3571698501        0.6261355774        0.9308781079
 C          3.1671315699        1.7773123366       -0.0153346859
 C          2.5056882438        2.2636252332       -1.1249229249
 C          1.4039199194        3.0819715746       -0.9436959892
 C          0.9777196619        3.3890830787        0.3389737251
 C          1.6478372276        2.8867299151        1.4429292394
 C          2.7553624568        2.0731302458        1.2678400800
 H          3.3093116339        1.6732546746        2.1011076206
 H          1.3102576972        3.1247755767        2.4390561082
 H          0.1171732959        4.0244137927        0.4788220002
 H          0.8780911165        3.4713717175       -1.8008396818
 H          2.8702704152        2.0083441202       -2.1069804228
 H          3.7169270418       -0.8940235245       -1.5803305037
 H          3.9228637420       -0.8826792572        2.0342847091
 H          2.0562916305       -1.6716630264        3.4687885761
 H         -0.0375251667       -2.4729552113        2.4339842606
 C         -0.6771742858       -2.6259621662       -0.1439342174
 H         -1.0017264045       -3.5313323713        0.3867575641
 C         -0.6436832476       -2.9163947453       -1.6294004348
 C         -0.0338398829       -4.1927868710       -2.1235822903
 C         -1.5190065004       -4.0001098370       -2.1796222340
 H         -1.9840926100       -3.8480754470       -3.1421925550
 H         -2.1349375561       -4.5465630182       -1.4802515720
 H          0.3615117864       -4.8743405562       -1.3856871646
 H          0.5204274692       -4.1779263270       -3.0498447283
 H         -0.5234824444       -2.0250438550       -2.2336673104
 O         -0.5653241542        0.1358969294       -0.9955755108
