  62
        -98.93733246
 C         -1.5243425892       -1.7675130296        0.3046132806
 C         -1.4120147693       -0.5929640200       -0.4754833801
 C         -2.3762334697        0.4858485199       -0.1787929910
 C         -3.2913676199        0.3001310002        0.7894408788
 C         -4.3780570703        1.2377647301        1.2522180280
 C         -3.9771720309        2.7068578404        1.4595541372
 C         -4.5749691409        3.6530733495        0.4167840764
 H         -5.6009495107        3.3404106691        0.2116960164
 H         -4.6205986213        4.6578123598        0.8430157858
 C         -3.8008418606        3.7429198390       -0.8971391234
 H         -2.8671572308        4.2832215494       -0.7272999535
 H         -4.3988714506        4.3376279083       -1.5915401339
 C         -3.4716059100        2.4018608287       -1.5564651025
 H         -4.3182699298        1.7209129684       -1.4786450723
 H         -3.3078105398        2.5851227281       -2.6201999326
 C         -2.2055828499        1.7359039594       -0.9973319218
 H         -1.5512734996        1.4347719391       -1.8210310314
 H         -1.6328157203        2.4588334999       -0.4095223421
 H         -2.8918948309        2.7971085907        1.4753094274
 H         -4.3401455912        3.0154005909        2.4414573369
 H         -5.2110607501        1.1771450994        0.5475973778
 H         -4.7363133405        0.8144937006        2.1934736381
 O         -3.3674029898       -0.8575494594        1.5085802695
 C         -2.4926239494       -1.9074929393        1.2961228104
 O         -2.6708698693       -2.8894575689        2.0461379910
 H          0.4775088203       -0.9328535982        1.5417380406
 C          1.2342183306       -1.4321307483        0.9488754511
 C          0.8666826211       -2.4896446689        0.1279501116
 C          1.8579636315       -3.1220805891       -0.6133832077
 C          3.1736029814       -2.6991981486       -0.5369581276
 C          3.5293701808       -1.6288336580        0.2627880618
 C          2.5450164404       -0.9833596479        1.0004587911
 N          2.8842251199        0.1267813527        1.7999767905
 S          3.6554515796        1.4217915925        1.0669689499
 O          4.9858857399        1.0158682227        0.6887148205
 O          3.5672789891        2.4995774131        2.0267864193
 C          2.7057806299        1.8229697213       -0.3878118306
 C          2.9015293504        1.1010223407       -1.5478105501
 C          2.1310249506        1.4001982897       -2.6592006304
 C          1.1942886103        2.4186157595       -2.5977667213
 C          1.0179321998        3.1422994901       -1.4290468718
 C          1.7714902896        2.8360685911       -0.3083294314
 H          1.6647844191        3.3720522516        0.6216964782
 H          0.2933219995        3.9401281299       -1.3891095025
 H          0.5972854004        2.6499736688       -3.4658567016
 H          2.2619827310        0.8343050492       -3.5672164501
 H          3.6484248007        0.3250645309       -1.5669228494
 H          2.1092508796        0.4698673528        2.3494668801
 H          4.5456955807       -1.2732047877        0.3181796618
 H          3.9323048617       -3.2057181887       -1.1140392771
 H          1.5984303719       -3.9484805096       -1.2546372173
 C         -0.5773762287       -2.9279869394        0.0707710315
 H         -0.7549541787       -3.6380441490        0.8925839519
 C         -0.9232255182       -3.6082247203       -1.2412041281
 C         -0.8049441577       -5.0946551704       -1.3894305472
 C         -2.1574275879       -4.4548369608       -1.3108357579
 H         -2.7643492177       -4.4122422415       -2.2027538781
 H         -2.7277474881       -4.5704500604       -0.4002809880
 H         -0.4658499277       -5.6599640098       -0.5343223067
 H         -0.4849091873       -5.4946009209       -2.3399512068
 H         -0.6935700481       -2.9872002008       -2.0995737285
 O         -0.5453159991       -0.4429790603       -1.3744907300
