  62
        -98.95211933
 C         -2.3559536314       -0.3556691507        0.0403441626
 C         -1.5171146689        0.2197773695       -0.9418930407
 C         -1.5322116644        1.6855907579       -1.0250707557
 C         -2.3213630918        2.3827159447       -0.1877806286
 C         -2.4493759176        3.8784091452       -0.1726448418
 C         -1.4712705161        4.5301246100        0.8127859811
 C         -0.0267198426        4.0524281081        0.6639114368
 H          0.5788438411        4.6265088710        1.3696396671
 H          0.0454848665        3.0057220371        0.9687750201
 C          0.5546325176        4.2052540432       -0.7484943850
 H         -0.0335308211        4.9256344177       -1.3191820280
 H          1.5675584925        4.6048220657       -0.6638318673
 C          0.6586730746        2.8919415971       -1.5264779214
 H          1.1200397474        2.1370754748       -0.8846677689
 H          1.3219791439        3.0510422281       -2.3812215382
 C         -0.6624187451        2.3294931194       -2.0677222150
 H         -1.2084446931        3.1152017378       -2.5949607992
 H         -0.4204585385        1.5387976917       -2.7839361930
 H         -1.5142116465        5.6123886811        0.6724682235
 H         -1.8008006500        4.3061362797        1.8301507929
 H         -2.2731745568        4.2585851662       -1.1773155477
 H         -3.4692506217        4.1284532596        0.1263915853
 O         -3.0981725311        1.7963262280        0.7597733274
 C         -3.1205573641        0.4194138050        0.9098009309
 O         -3.8563323244        0.0118788809        1.8333941292
 H         -0.4290233077       -0.8609458246        1.6516491447
 C         -0.1241940467       -1.7646975844        1.1440406699
 C         -1.0284946982       -2.4361594743        0.3314483618
 C         -0.6130154286       -3.6043412174       -0.2961672451
 C          0.6823813498       -4.0651629880       -0.1357296849
 C          1.5944496778       -3.3626683500        0.6303969250
 C          1.1848991150       -2.1990039982        1.2708040964
 N          2.0787572442       -1.4319921510        2.0475671536
 S          2.3912616509        0.1308614442        1.5256798573
 O          3.3606388938        0.6521539393        2.4659064734
 O          1.1587264957        0.8641866744        1.4087255011
 C          3.1740582494       -0.0786174778       -0.0643469367
 C          4.5506630741        0.0238233147       -0.1340398213
 C          5.1815094962       -0.1949201179       -1.3474451887
 C          4.4283786193       -0.5207348915       -2.4656577621
 C          3.0492056239       -0.6241050162       -2.3771956513
 C          2.4088998981       -0.4037891533       -1.1666060017
 H          1.3348408100       -0.4756426051       -1.0866261023
 H          2.4550365598       -0.8764501371       -3.2407717251
 H          4.9177888957       -0.6940079841       -3.4111669423
 H          6.2542318156       -0.1125370945       -1.4168745945
 H          5.0922781542        0.2824899630        0.7615754469
 H          2.9570786476       -1.8975121851        2.2327414323
 H          2.6128956753       -3.7061950601        0.7330321665
 H          0.9908791303       -4.9734830382       -0.6303217493
 H         -1.3029578063       -4.1516411191       -0.9173999412
 C         -2.4181664573       -1.8657602050        0.1855939725
 H         -2.9728412019       -2.0615737818        1.1154354518
 C         -3.1885444032       -2.4605315907       -0.9769190746
 C         -4.0052474378       -3.7032982792       -0.7919536259
 C         -4.6844366208       -2.3792487919       -0.9671622176
 H         -5.1966944930       -2.1780086502       -1.8960182875
 H         -5.1471600342       -1.9192237436       -0.1058116911
 H         -4.0196122301       -4.1515531733        0.1900261323
 H         -4.0564435824       -4.4131850771       -1.6037577597
 H         -2.6862955256       -2.3117655316       -1.9261339096
 O         -0.8022391507       -0.4618273516       -1.7238567881
