  62
        -98.94374126
 C          1.8499911665       -0.7078624218       -0.6482634688
 C          3.1682778189       -0.6236385973       -1.1555036569
 C          4.2317455508       -0.4963219457       -0.1527278719
 C          3.9185548059       -0.4938189642        1.1560128827
 C          4.8935659496       -0.4039633431        2.2985707086
 C          5.3083332521        1.0299088110        2.6555331243
 C          6.2452803462        1.7040916653        1.6525813745
 H          6.6237990874        2.6115093551        2.1274322249
 H          7.1009495242        1.0551974405        1.4630370198
 C          5.5804045160        2.0843095282        0.3221962943
 H          5.8646555149        3.1036149129        0.0508245654
 H          4.4945749294        2.0778709601        0.4436532556
 C          5.9534376046        1.1816657191       -0.8540757662
 H          7.0195613647        1.2826783208       -1.0689725259
 H          5.4000885525        1.5195289580       -1.7342581382
 C          5.6372034629       -0.3040952118       -0.6366342539
 H          5.7325714089       -0.8188534659       -1.5958744354
 H          6.3465557265       -0.7403960780        0.0662988214
 H          5.8140879149        0.9916775859        3.6231139610
 H          4.4068679853        1.6353455901        2.7759663160
 H          5.7813647103       -0.9943870751        2.0703296997
 H          4.3968409450       -0.8436852442        3.1661130853
 O          2.6395000479       -0.5971294753        1.6036556230
 C          1.5729151461       -0.6810979666        0.7186627029
 O          0.4568709845       -0.7319032865        1.2656786065
 O          3.4414694719       -0.6514132629       -2.3859238494
 C          0.6948089653       -0.8265307277       -1.6240424078
 C         -0.2762339129        0.3154357740       -1.4511878549
 C          0.2126236103        1.6027403866       -1.2447027614
 C         -0.6464584561        2.6704085736       -1.0688944496
 C         -2.0172984266        2.4831951849       -1.1092747271
 C         -2.5167390801        1.2081784893       -1.3316415811
 C         -1.6502895686        0.1344726972       -1.5041837775
 H         -2.0582648170       -0.8501569825       -1.6730481698
 N         -3.9154242831        1.0226540114       -1.3848832101
 S         -4.7804012693        1.2169725765        0.0368643986
 O         -6.1716088551        1.0752351003       -0.3276278212
 O         -4.4001714390        2.4644327568        0.6469501810
 C         -4.2905887397       -0.1617385149        1.0579237950
 C         -5.1808349325       -1.1976828465        1.2650261521
 C         -4.7697429355       -2.2971724733        2.0006861041
 C         -3.4752129842       -2.3514226587        2.4964790578
 C         -2.5913029605       -1.3065758404        2.2747513127
 C         -3.0027285870       -0.1964808187        1.5541400882
 H         -2.3272569478        0.6237039297        1.3718598699
 H         -1.5726334014       -1.3462376643        2.6262469683
 H         -3.1504023843       -3.2134637917        3.0580672950
 H         -5.4547399028       -3.1106905949        2.1787408184
 H         -6.1726802712       -1.1175692413        0.8501261746
 H         -4.1876040291        0.1493350847       -1.8154605034
 H         -2.7025908083        3.3002900093       -0.9555559012
 H         -0.2467906425        3.6593898716       -0.9012154839
 H          1.2830510359        1.7557804540       -1.2149460841
 H          1.1483883411       -0.7401065410       -2.6232662264
 C          0.0470731119       -2.1907678756       -1.5003572005
 C         -0.5677778016       -2.8531120015       -2.6964058053
 C          0.7217727522       -3.3689422396       -2.1340884057
 H          0.7174294620       -4.3115308044       -1.6078630819
 H          1.6327705028       -3.1805128042       -2.6833138328
 H         -1.4585206720       -3.4474446088       -2.5567534859
 H         -0.5324855273       -2.3234053370       -3.6365823835
 H         -0.4195403637       -2.3415670863       -0.5329197212
