  62
        -98.93911353
 C         -2.7219826200       -1.0530228014       -0.3010114300
 C         -2.4279082963        0.1160532508       -1.0436153776
 C         -3.3519631348        1.2455736977       -0.8575798212
 C         -4.4026598420        1.1178073623       -0.0281615745
 C         -5.3788921992        2.2091604830        0.2996168459
 C         -4.9287053289        3.0041371302        1.5334890621
 C         -3.4700339732        3.4586006609        1.4787947681
 H         -3.2756713993        4.0352490691        2.3857474058
 H         -2.8210299101        2.5801855419        1.5127780612
 C         -3.1138626515        4.3051370285        0.2487406158
 H         -2.5148039391        5.1584187762        0.5733845862
 H         -4.0234607309        4.7014001456       -0.2040642918
 C         -2.2982346111        3.5674545098       -0.8146542850
 H         -1.9184155266        4.3067960336       -1.5247124907
 H         -1.4344388256        3.0886940054       -0.3461603541
 C         -3.0590068379        2.5070563085       -1.6207049061
 H         -3.9789885272        2.9376999607       -2.0205634559
 H         -2.4252311614        2.2095824939       -2.4611092950
 H         -5.0572068362        2.3742206083        2.4167627379
 H         -5.5792980035        3.8741668950        1.6392944296
 H         -5.4765872335        2.8725989899       -0.5574137431
 H         -6.3481371731        1.7524153461        0.5065708550
 O         -4.6671329486       -0.0257970581        0.6526269231
 C         -3.8363516591       -1.1254238438        0.5425827749
 O         -4.1930778700       -2.1030401884        1.2301513707
 H          0.2526852922       -0.6711203245       -0.7732751282
 C          0.3767842892       -1.2595256303        0.1240428386
 C         -0.6244804142       -2.1460470901        0.4944639244
 C         -0.4613330990       -2.8802522407        1.6632871818
 C          0.6746922579       -2.7260617026        2.4385857973
 C          1.6665263286       -1.8344809055        2.0708142439
 C          1.5119717669       -1.0940635313        0.9057208861
 N          2.4918247413       -0.1481989857        0.5303282698
 S          4.0768087199       -0.6976947671        0.3343307292
 O          4.1497159420       -1.6543161012       -0.7499437050
 O          4.5678957148       -1.1539346546        1.6095045548
 C          4.8951563578        0.8170491884       -0.1215797044
 C          5.1629597697        1.7411370132        0.8701804703
 C          5.7804508382        2.9326916890        0.5257873346
 C          6.1178842947        3.1788574214       -0.7970466210
 C          5.8436402691        2.2410597629       -1.7808293919
 C          5.2241552157        1.0477697076       -1.4431046675
 H          4.9980254640        0.2877283933       -2.1739137016
 H          6.1091516476        2.4339664819       -2.8078632669
 H          6.5999299094        4.1065119403       -1.0626969935
 H          5.9968736570        3.6640825380        1.2877420189
 H          4.8905072068        1.5037073179        1.8851386623
 H          2.2129791907        0.3342654221       -0.3153143435
 H          2.5579230066       -1.7131467974        2.6637957346
 H          0.7884572182       -3.3041332069        3.3434294572
 H         -1.2387003994       -3.5666969898        1.9673774917
 C         -1.8659160796       -2.3102042396       -0.3508718901
 H         -2.4769608369       -3.0997062429        0.1064500259
 C         -1.5196114957       -2.7364554755       -1.7644555967
 C         -1.1201646332       -4.1580943215       -2.0151461873
 C         -2.4458127170       -3.6546350392       -2.5006390571
 H         -2.5858143588       -3.5036343627       -3.5604705107
 H         -3.3363225247       -3.9847487436       -1.9853977838
 H         -0.3452573466       -4.3551579859       -2.7401732408
 H         -1.1119732234       -4.8312376286       -1.1710036733
 H         -1.0258043782       -1.9662118701       -2.3415303713
 O         -1.4498978996        0.2396198351       -1.8297997819
