  62
        -98.94530958
 C         -2.1346179421       -0.9000995034        0.0732687832
 C         -2.8548384858       -0.2347564684        1.0930597322
 C         -3.5682031697        0.9835281276        0.6873799215
 C         -3.4613448183        1.4150867541       -0.5828435270
 C         -4.1683143389        2.6150710114       -1.1420299880
 C         -5.5280033055        2.2302951571       -1.7420393022
 C         -6.3889923675        1.3687696516       -0.8182444739
 H         -5.9041993048        0.3994549687       -0.6815467652
 H         -7.3345566201        1.1857482408       -1.3329950412
 C         -6.6673951845        1.9940234916        0.5557904337
 H         -7.7254681699        1.8633631457        0.7919458379
 H         -6.4733972729        3.0666595800        0.5209403513
 C         -5.8745915659        1.3731015403        1.7073413860
 H         -5.9910722313        0.2866431697        1.6880370385
 H         -6.3025058682        1.7317923854        2.6471727430
 C         -4.3753058717        1.6962213166        1.7361620355
 H         -3.9806960594        1.3573798550        2.6987357056
 H         -4.2296774713        2.7763651745        1.6671923785
 H         -5.3528382437        1.6736639582       -2.6655455815
 H         -6.0647766773        3.1466538546       -1.9941276425
 H         -3.5429442212        3.0467315600       -1.9255685251
 H         -4.3029460063        3.3519322297       -0.3523540545
 O         -2.7225036414        0.7741361986       -1.5245423253
 C         -2.0477345630       -0.4015669152       -1.2270075762
 O         -1.4213855281       -0.8911709500       -2.1850745359
 O         -2.8922541741       -0.6363037717        2.2882073101
 C         -1.3826483632       -2.1744428871        0.4143660119
 C          0.0929740112       -1.9761295351        0.1683622916
 C          0.8769905640       -2.8551757438       -0.5660485056
 C          2.2203833773       -2.5906022040       -0.7719090364
 C          2.8112726210       -1.4566911371       -0.2464559900
 C          2.0377628302       -0.5741394157        0.4966076898
 C          0.6942357720       -0.8423305188        0.7022196633
 H          0.0913496298       -0.1493702305        1.2774046719
 N          2.6320639120        0.5776652060        1.0467958012
 S          3.4624449181        1.5949001354       -0.0035656692
 O          3.4221346655        2.8979500828        0.6253582004
 O          2.9417733356        1.5140151179       -1.3487777287
 C          5.1326762075        0.9797853350        0.0483721839
 C          5.7577024953        0.8970539879        1.2773910331
 C          7.0598298849        0.4267387648        1.3348613071
 C          7.7120341004        0.0525217077        0.1692538870
 C          7.0717194060        0.1447126375       -1.0570450079
 C          5.7685235068        0.6134501518       -1.1215669051
 H          5.2275099653        0.6969627736       -2.0508233224
 H          7.5800609990       -0.1462797878       -1.9622547720
 H          8.7254429443       -0.3135225291        0.2167726536
 H          7.5610414375        0.3534367469        2.2865193736
 H          5.2161264395        1.2013684197        2.1573733002
 H          1.9989431383        1.1171854178        1.6202519266
 H          3.8550507850       -1.2443914675       -0.4108164629
 H          2.8156307287       -3.2781511937       -1.3531023226
 H          0.4345623634       -3.7416896762       -0.9893191455
 H         -1.5322658752       -2.3213914331        1.4945563267
 C         -1.9729339822       -3.3562912856       -0.3247330619
 C         -1.8687437095       -4.7351012454        0.2533708061
 C         -3.1890036587       -4.0269304913        0.2381021158
 H         -3.9524565793       -4.3680818982       -0.4449162788
 H         -3.5778340052       -3.6457656126        1.1712252587
 H         -1.7275705239       -5.5670174947       -0.4198058497
 H         -1.3628099232       -4.8421445910        1.2007884601
 H         -1.9169668968       -3.2433176658       -1.4016354490
