  62
        -98.94593923
 C          1.5746951639        1.5713105436       -0.2958096298
 C          1.4308630721        0.2054508095       -0.6412106012
 C          2.6816808480       -0.5601491618       -0.7472820782
 C          3.8556280204        0.0593687772       -0.5286665626
 C          5.1946897775       -0.6183890217       -0.5352822048
 C          5.5687344445       -1.1181581572        0.8675954146
 C          4.4601456950       -1.9123390493        1.5590201261
 H          3.6152448396       -1.2485168513        1.7565297578
 H          4.8486639834       -2.2341726075        2.5277984233
 C          3.9694210477       -3.1359494633        0.7726671065
 H          3.8842477685       -3.9809552081        1.4591194182
 H          4.7056726345       -3.4076061789        0.0152605860
 C          2.6018690662       -2.9587757949        0.1099255166
 H          1.8793967104       -2.5965195063        0.8454254516
 H          2.2620624617       -3.9403422982       -0.2297065893
 C          2.5661709871       -2.0162971642       -1.0990846280
 H          1.5889609148       -2.1271449973       -1.5773742629
 H          3.3392410428       -2.3032845677       -1.8145959963
 H          5.8087931039       -0.2530289053        1.4902031060
 H          6.4650201826       -1.7359121404        0.7861438375
 H          5.1713046979       -1.4515591438       -1.2348985079
 H          5.9447651587        0.1016594741       -0.8666971177
 O          3.9529435652        1.3784165418       -0.2187113364
 C          2.8188095381        2.1620683186       -0.0787319073
 O          3.0466703467        3.3476381246        0.2379474220
 H         -2.2351617249        1.3970182180       -0.2692515120
 C         -1.7946203756        1.3289436431        0.7103364898
 C         -0.5246114655        1.8245838427        0.9533810919
 C         -0.0021499781        1.7252561649        2.2413764147
 C         -0.7316597183        1.1392652602        3.2567788196
 C         -1.9932735190        0.6269964365        3.0063205165
 C         -2.5238153734        0.7239918529        1.7259859293
 N         -3.8049717100        0.2292141053        1.4486878452
 S         -4.1871093011       -0.4227732258       -0.0379611187
 O         -4.3251487375        0.6224211863       -1.0216484438
 O         -5.3878240045       -1.1920243002        0.2218547018
 C         -2.8757684025       -1.5422088589       -0.4935105865
 C         -2.4504002851       -1.5708597261       -1.8042367639
 C         -1.4944442993       -2.4992007201       -2.1802456976
 C         -0.9787697397       -3.3759276047       -1.2407889975
 C         -1.4085261517       -3.3283014127        0.0753605804
 C         -2.3706411597       -2.4079367527        0.4548062013
 H         -2.7251323249       -2.3566142783        1.4717514855
 H         -0.9939460478       -4.0038240573        0.8068521720
 H         -0.2318195786       -4.0971832127       -1.5344011071
 H         -1.1488429001       -2.5278214954       -3.2016719524
 H         -2.8680696212       -0.8621304281       -2.5018510772
 H         -4.2496086145       -0.2704573520        2.2041504824
 H         -2.5632186324        0.1609398250        3.7956289937
 H         -0.3139032742        1.0716430885        4.2500496170
 H          0.9901463163        2.1130180558        2.4304774412
 C          0.3369100838        2.4350744987       -0.1244852411
 H          0.6905913797        3.4145053204        0.2276201889
 C         -0.3766671619        2.6191512925       -1.4463133706
 C         -1.3052605204        3.7792307626       -1.6369679940
 C          0.0174930754        3.7534344961       -2.3413037201
 H          0.0319423648        3.5877376616       -3.4081254525
 H          0.7969912012        4.4151286610       -1.9919738835
 H         -1.4257755085        4.4624314525       -0.8096465357
 H         -2.2046200244        3.6292425287       -2.2153539781
 H         -0.6352392174        1.6790427078       -1.9200438186
 O          0.3213311105       -0.3480429801       -0.8477003171
