  62
        -98.93477473
 C          1.9472645138        0.9294635283        0.6693173570
 C          1.8860308331        0.2598858985       -0.5760919595
 C          2.1755373586       -1.1864375599       -0.5573247713
 C          2.4098661011       -1.7954500102        0.6165655366
 C          2.7669933652       -3.2377987601        0.8496554087
 C          4.2938645761       -3.4229974138        0.8874277457
 C          4.9489999323       -3.6592330265       -0.4728670943
 H          6.0303179389       -3.6437895278       -0.3190176388
 H          4.6821689424       -4.6557859946       -0.8304870322
 C          4.5922664496       -2.6391046411       -1.5569628491
 H          4.6092359405       -1.6326612071       -1.1349326672
 H          5.3672875986       -2.6813603143       -2.3245323652
 C          3.2288813153       -2.9059577854       -2.2125648076
 H          2.8848095207       -3.9004278636       -1.9293123923
 H          3.3453542615       -2.9157926015       -3.2982267498
 C          2.1377894970       -1.8726121127       -1.8953842434
 H          2.1832037020       -1.0580664982       -2.6254551186
 H          1.1513588706       -2.3352729689       -2.0113245522
 H          4.7261512479       -2.5351635818        1.3561805772
 H          4.5265483660       -4.2760567474        1.5279338616
 H          2.3579162776       -3.5032393249        1.8269484941
 H          2.3095959803       -3.8725022284        0.0964538576
 O          2.4027325878       -1.1241421146        1.8026772986
 C          2.1609827306        0.2353390407        1.8609502106
 O          2.1631772404        0.7068503582        3.0173237374
 O          1.6198686909        0.8324574610       -1.6650298324
 C          1.6335243547        2.4115858578        0.7931270158
 C          0.3850401676        2.7151160980        0.0012099804
 C          0.2990592310        3.6932275825       -0.9796112785
 C         -0.8804049502        3.8734642452       -1.6817725888
 C         -1.9848847650        3.0812898654       -1.4317256593
 C         -1.9114606962        2.1066469231       -0.4417133296
 C         -0.7403337210        1.9475133611        0.2771635156
 H         -0.6882304278        1.1830150961        1.0405764787
 N         -3.0240108496        1.2977756093       -0.1443431295
 S         -2.7585376969       -0.2868808955        0.3713599151
 O         -2.4331440139       -0.2698452312        1.7770148656
 O         -1.8194918489       -0.9609284618       -0.4972549881
 C         -4.3984400341       -0.9536629970        0.1513973292
 C         -5.3612881403       -0.6572453316        1.0978597041
 C         -6.6481104977       -1.1389307418        0.9183013818
 C         -6.9496128469       -1.9044183049       -0.1985497490
 C         -5.9726922480       -2.1954051862       -1.1386779592
 C         -4.6837643432       -1.7149340801       -0.9659656847
 H         -3.8896874717       -1.9197191562       -1.6661969751
 H         -6.2087594090       -2.7931763079       -2.0042310883
 H         -7.9517587256       -2.2785914032       -0.3357322541
 H         -7.4093389463       -0.9164193861        1.6484317674
 H         -5.0762786055       -0.0669672080        1.9530549930
 H         -3.7306215589        1.3304054978       -0.8671270561
 H         -2.8950602382        3.2082719597       -1.9979862822
 H         -0.9328435776        4.6302176021       -2.4498899265
 H          1.1621360511        4.2929506015       -1.2172975318
 H          1.3946100597        2.5591552107        1.8603897596
 C          2.8002020144        3.3352480378        0.4779861647
 C          4.2157958333        2.8698551249        0.6412704181
 C          3.6706737126        3.1451543130       -0.7262241786
 H          4.0212990361        4.0240301932       -1.2473341649
 H          3.4489443822        2.3113546322       -1.3726800616
 H          4.9361216471        3.5567886308        1.0595973760
 H          4.3713186070        1.8415574378        0.9350334766
 H          2.5967644883        4.3589307573        0.7771219791
