  62
        -98.93908493
 C         -2.3546458982       -0.6552323705        0.1205362792
 C         -2.6213478890        0.7393447949        0.1619114251
 C         -3.8888320764        1.1847599640       -0.4295583196
 C         -4.7095523993        0.2725174466       -0.9808579239
 C         -6.0554370624        0.5722913992       -1.5730893620
 C         -7.1666268944        0.4445420330       -0.5216500126
 C         -6.8720472825        1.1879269773        0.7811559321
 H         -7.7360353697        1.0529341876        1.4353984157
 H         -6.0186053892        0.7176463902        1.2750478125
 C         -6.5920323473        2.6871703501        0.6072032426
 H         -6.9572752215        3.0224809592       -0.3640995482
 H         -7.1462057731        3.2379406779        1.3701267278
 C         -5.1207009190        3.0788926838        0.7568073617
 H         -4.7229626091        2.6643122823        1.6866980827
 H         -5.0646365612        4.1679709027        0.8350265657
 C         -4.1966439942        2.6553146091       -0.3921319042
 H         -4.6185389167        2.9842560713       -1.3440963170
 H         -3.2357882792        3.1586753629       -0.2495273174
 H         -8.0958456411        0.8194536303       -0.9544200936
 H         -7.3022206580       -0.6139092795       -0.2882292523
 H         -6.0467514069        1.5783239531       -1.9879208622
 H         -6.2438552297       -0.1416684511       -2.3764713834
 O         -4.4177247106       -1.0500370382       -1.0168219730
 C         -3.2451032530       -1.5525851241       -0.4701528073
 O         -3.1415550002       -2.7895485872       -0.5849026284
 H          1.2880094348        0.2205359164        0.5036989335
 C          1.1845770350       -0.5548447930       -0.2417020106
 C          0.0326172280       -1.3261034195       -0.2882467640
 C         -0.0810076095       -2.3027362384       -1.2726477432
 C          0.9421224895       -2.4998891149       -2.1815517255
 C          2.1014783337       -1.7471766007       -2.1157257838
 C          2.2212056266       -0.7641985060       -1.1406334031
 N          3.3758350358        0.0298693865       -1.0575928660
 S          3.9141323723        0.4934811433        0.4746792189
 O          3.7982063660       -0.6153895832        1.3947344749
 O          3.2454969236        1.7121617076        0.8559426185
 C          5.6301528190        0.8312915625        0.1270717125
 C          6.5721108680       -0.1542801293        0.3546673906
 C          7.8998550041        0.1052262118        0.0532244466
 C          8.2606440340        1.3377169855       -0.4702678940
 C          7.3039367307        2.3171939997       -0.6925872534
 C          5.9746731763        2.0647487807       -0.3927443086
 H          5.1978191386        2.7971086582       -0.5393421310
 H          7.5885557138        3.2752251926       -1.0967784984
 H          9.2944684685        1.5373601929       -0.7038487908
 H          8.6462024525       -0.6528309849        0.2279173592
 H          6.2464017234       -1.0935991937        0.7718797663
 H          4.1315276751       -0.3109799237       -1.6360087216
 H          2.9047663100       -1.9140194497       -2.8173280529
 H          0.8414355903       -3.2594873027       -2.9421578934
 H         -0.9793590756       -2.8985438321       -1.3193355697
 C         -1.0481485367       -1.1123704845        0.7453120270
 H         -0.7264394190       -0.2753942246        1.3811629420
 C         -1.1814255440       -2.3473814920        1.6166227532
 C         -0.0769632447       -2.6683814373        2.5772069901
 C         -1.4018046458       -2.1900620985        3.0894610756
 H         -2.0460184398       -2.8958505108        3.5920786936
 H         -1.4632737735       -1.1852511022        3.4821441867
 H          0.1884158914       -3.7035223839        2.7280136936
 H          0.7645062358       -1.9911896679        2.6170829208
 H         -1.6757237585       -3.1729503494        1.1217021798
 O         -1.8321760861        1.5764769535        0.6788613580
