  62
        -98.93771270
 C          2.4758501106        0.9245540400        0.6780059693
 C          3.5297923505        0.9437842897       -0.2681151808
 C          4.7094635307        0.1304850401        0.0685000896
 C          4.7260453809       -0.5807489793        1.2094815100
 C          5.8384984011       -1.4909773889        1.6406977604
 C          5.6108924713       -2.9251465392        1.1428980211
 C          5.2657962912       -3.0164740601       -0.3435620488
 H          5.1582319614       -4.0755725502       -0.5878358082
 H          4.2933918311       -2.5482329303       -0.5139406890
 C          6.3047831311       -2.3796774504       -1.2770359692
 H          7.2512007711       -2.2563029699       -0.7492265693
 H          6.4861775911       -3.0579537608       -2.1134956989
 C          5.8802730608       -1.0375975608       -1.8759634299
 H          4.8885230908       -1.1340802712       -2.3252295098
 H          6.5795750107       -0.7870205311       -2.6782101601
 C          5.8558667506        0.1483285797       -0.9035731705
 H          6.8086021507        0.2094120802       -0.3737951606
 H          5.7325013704        1.0596591094       -1.4958731710
 H          6.5116776614       -3.5074345290        1.3453615114
 H          4.7877147514       -3.3629805091        1.7122181714
 H          6.7824863210       -1.1081100489        1.2577347701
 H          5.8745996512       -1.4961250983        2.7314044304
 O          3.6927972010       -0.5838536891        2.0895153900
 C          2.5526011108        0.1597236106        1.8465881197
 O          1.6850368509        0.0677591709        2.7390897198
 H         -1.2009815693        0.6682429396        1.1660618297
 C         -0.9833702194        0.5296948791        0.1152839997
 C          0.2185998005        0.9976552890       -0.3956435606
 C          0.4925809205        0.7999375483       -1.7447032105
 C         -0.4170182695        0.1431526978       -2.5534986001
 C         -1.6128700694       -0.3270299122       -2.0399456298
 C         -1.8970146993       -0.1337457015       -0.6949017798
 N         -3.1010100792       -0.6244602815       -0.1594166395
 S         -4.5014371193       -0.4181453022       -1.0825153595
 O         -4.5759257791       -1.4910994327       -2.0423800090
 O         -4.5419342695        0.9200698875       -1.6274688502
 C         -5.7653269692       -0.6244739318        0.1560622707
 C         -6.1544051989       -1.9034366817        0.5063766314
 C         -7.1209377788       -2.0636839913        1.4864595815
 C         -7.6781738590       -0.9495530511        2.0965420410
 C         -7.2782958992        0.3276691588        1.7332233803
 C         -6.3113252193        0.4952403584        0.7545447101
 H         -5.9773287995        1.4689760183        0.4335732396
 H         -7.7156927393        1.1916926689        2.2070716198
 H         -8.4313220389       -1.0770123108        2.8580082511
 H         -7.4369255186       -3.0545685412        1.7701472621
 H         -5.7004964588       -2.7387276019       -0.0008543682
 H         -3.2420961492       -0.3327924910        0.7980044503
 H         -2.3313042893       -0.8348298126       -2.6635221095
 H         -0.1932230395       -0.0054217128       -3.5995120000
 H          1.4282425104        1.1544292683       -2.1488619207
 C          1.1885610604        1.7175966197        0.5117171290
 H          0.7391382105        1.7559574101        1.5132310790
 C          1.4174949802        3.1408014494        0.0408292482
 C          0.3555541500        4.1656093494        0.2968257377
 C          1.6475630400        4.2186500700        1.0547719776
 H          2.3526837199        5.0022454400        0.8219422072
 H          1.6397880202        3.9344524506        2.0972740878
 H         -0.5303561899        3.8470336895        0.8255129580
 H          0.1696527398        4.9137410490       -0.4583484526
 H          1.9683780701        3.2060666691       -0.8874543819
 O          3.5155909103        1.5997359191       -1.3430461011
