  62
        -98.93738299
 C          2.4328724811        1.1885041330       -0.0338405953
 C          3.4523706649        0.7023677259        0.8222692958
 C          4.3869316500       -0.2839793523        0.2557958977
 C          4.2298497853       -0.6826615456       -1.0201608411
 C          5.0370199276       -1.6411722696       -1.8703821836
 C          6.0251585031       -2.6120400985       -1.2287182093
 C          5.3885217587       -3.6899249334       -0.3522903539
 H          4.8243025484       -4.3716665467       -0.9936692167
 H          6.1904631141       -4.2632046616        0.1180109388
 C          4.4386440984       -3.1848535887        0.7311119726
 H          3.5723331450       -2.7079392004        0.2677319325
 H          4.0690772884       -4.0537576309        1.2823841700
 C          5.0535243366       -2.2203374721        1.7436471846
 H          5.9454889930       -2.6691935474        2.1848336116
 H          4.3219390284       -2.0739028065        2.5427724322
 C          5.4222910690       -0.8301446388        1.1959159187
 H          6.4025224100       -0.8360110908        0.7253139248
 H          5.4674895631       -0.1360345384        2.0400424398
 H          6.7813711352       -2.0672810724       -0.6712846547
 H          6.5406625954       -3.1174053152       -2.0500435798
 H          4.3041294417       -2.2091289313       -2.4521353632
 H          5.5821298721       -1.0171502725       -2.5873330248
 O          3.2388023720       -0.1785787568       -1.8105693826
 C          2.3159545174        0.7468873640       -1.3501610178
 O          1.4754407367        1.0807623221       -2.2080721578
 O          3.5838815532        1.0846583268        2.0154447150
 C          1.4411404498        2.1821753850        0.5491198932
 C          0.1340940669        1.4709333300        0.8040073163
 C         -0.1114563658        0.9044684471        2.0512451326
 C         -1.2843277564        0.2134427633        2.2933716570
 C         -2.2314489751        0.0620163730        1.2957563283
 C         -1.9938502436        0.6182207142        0.0458726994
 C         -0.8229846922        1.3279140670       -0.1895129718
 H         -0.6388820376        1.7384826272       -1.1701709912
 N         -2.9237374781        0.4345610635       -0.9877111476
 S         -4.5608077636        0.5951557138       -0.6863659764
 O         -5.1573616398        0.8742474295       -1.9742818101
 O         -4.8190216286        1.5569797749        0.3603279222
 C         -5.0594829265       -1.0306572196       -0.1569062917
 C         -4.6986246715       -2.1101036816       -0.9392376790
 C         -5.0880446060       -3.3807765206       -0.5470594629
 C         -5.8309645815       -3.5497341394        0.6119758398
 C         -6.1889722112       -2.4556092067        1.3843943740
 C         -5.8014001538       -1.1818353705        0.9981566762
 H         -6.0508368730       -0.3029994000        1.5711963265
 H         -6.7665460300       -2.5891246033        2.2849440344
 H         -6.1317404993       -4.5402800199        0.9147879824
 H         -4.8103186069       -4.2338856916       -1.1450555757
 H         -4.1209996069       -1.9377323576       -1.8322952238
 H         -2.6537689318        0.8541324363       -1.8647462786
 H         -3.1460943762       -0.4784026822        1.4768526556
 H         -1.4624666887       -0.2171449662        3.2670005636
 H          0.6351874438        1.0033248135        2.8263614343
 H          1.8615802832        2.4695241895        1.5220925063
 C          1.2894432046        3.4293902772       -0.2965862531
 C          0.6353177184        4.6375575289        0.3018742037
 C          2.1090890849        4.6399539795        0.0305731496
 H          2.4837005097        5.2429224763       -0.7830124093
 H          2.7830776004        4.5757726281        0.8722032769
 H         -0.0056011409        5.2406599234       -0.3230763680
 H          0.3079455517        4.5690743057        1.3283858549
 H          1.1114735406        3.2261711962       -1.3448532288
