  62
        -98.94093216
 C         -2.5791217582       -1.3839792771        0.2450489025
 C         -2.8140943282       -0.5405532863       -0.8685409133
 C         -3.6808015806        0.6206294190       -0.6186127494
 C         -4.1888069886        0.8350993899        0.6075626576
 C         -5.0938983403        1.9674887264        1.0100012620
 C         -4.3504331666        3.2629081039        1.3632061132
 C         -3.7542943792        4.0159153798        0.1732081621
 H         -3.4565878248        5.0022453373        0.5343689866
 H         -4.5241928013        4.1645711255       -0.5846455197
 C         -2.5322781241        3.3355585966       -0.4602117916
 H         -2.1199198827        2.5991933041        0.2348724936
 H         -1.7474281552        4.0766051045       -0.6314876698
 C         -2.8110968569        2.6539240568       -1.7999797186
 H         -1.8852202565        2.1823947393       -2.1401079015
 H         -3.0949748702        3.4056177518       -2.5399981326
 C         -3.9054134930        1.5793092018       -1.7494189935
 H         -3.8688339561        1.0101096808       -2.6815299187
 H         -4.8856734579        2.0469681569       -1.6622068061
 H         -3.5580118593        3.0280552870        2.0778980007
 H         -5.0637818708        3.9227615212        1.8622079588
 H         -5.6371757524        1.6305312614        1.8953799586
 H         -5.8126547905        2.1642279679        0.2141470860
 O         -3.9387133847        0.0037193219        1.6532658678
 C         -3.1221691686       -1.1036179481        1.5029698621
 O         -2.9651224311       -1.7653592004        2.5484971974
 O         -2.3380564040       -0.7245785253       -2.0193654169
 C         -1.7060483069       -2.6288421438        0.1816564189
 C         -0.2603844141       -2.2550597824        0.3852848489
 C          0.4927758263       -2.8159787465        1.4090847287
 C          1.8078813206       -2.4310981089        1.6068289715
 C          2.3966040944       -1.4828637910        0.7895381983
 C          1.6498521269       -0.9123815631       -0.2332238241
 C          0.3342401421       -1.3017714106       -0.4310431881
 H         -0.2441565826       -0.8548548433       -1.2268015569
 N          2.2392160833        0.0587381568       -1.0674098125
 S          2.8468156673        1.4274901826       -0.3017230285
 O          2.1516704597        1.6906450618        0.9380274946
 O          2.8090705787        2.4760274216       -1.2975944895
 C          4.5433213478        0.9966969491        0.0241648841
 C          5.0320435343        1.0394031119        1.3150422529
 C          6.3564573452        0.6973676747        1.5413345686
 C          7.1635589306        0.3215215590        0.4784833949
 C          6.6577330798        0.2862923581       -0.8126626583
 C          5.3352317842        0.6277192306       -1.0458046048
 H          4.9028568466        0.6162768024       -2.0323699284
 H          7.2884247326       -0.0067107201       -1.6364327390
 H          8.1929456909        0.0540811545        0.6576370816
 H          6.7513458021        0.7241344693        2.5442506853
 H          4.3645633432        1.3309403709        2.1103482870
 H          1.6396789045        0.3306945978       -1.8343944885
 H          3.4190297545       -1.1768917519        0.9406743690
 H          2.3803679657       -2.8730181430        2.4079356582
 H          0.0341956107       -3.5427767663        2.0635859253
 H         -2.0155932911       -3.2370969863        1.0457107981
 C         -1.9497790963       -3.4612917439       -1.0708368630
 C         -0.9195340518       -3.6957057003       -2.1311124566
 C         -1.3002277994       -4.8073024619       -1.2033868848
 H         -1.8846193172       -5.6300652462       -1.5861289594
 H         -0.5864064371       -5.0865609464       -0.4429156354
 H         -1.2592509885       -3.7313452580       -3.1550760126
 H          0.0531421481       -3.2452265228       -2.0120842434
 H         -2.9765866610       -3.3830703808       -1.4129447207
