  62
        -98.93557540
 C         -1.6094541595       -1.4775614807       -0.0294765283
 C         -2.9132726449       -1.3205811529        0.5121179399
 C         -3.7349714069       -0.2415336999       -0.0505434812
 C         -3.2264690450        0.5439614467       -1.0159417059
 C         -3.9293878734        1.6699815131       -1.7265195427
 C         -4.3059144359        2.8880355028       -0.8609898265
 C         -5.7334933717        2.8477032473       -0.3018438781
 H         -6.1613995639        3.8506994002       -0.3587367848
 H         -6.3446148649        2.2109977448       -0.9429363136
 C         -5.8682126779        2.3874199202        1.1530392735
 H         -5.5863139250        3.2096143070        1.8147998915
 H         -6.9217116423        2.1654230771        1.3368060768
 C         -5.0297256193        1.1725256829        1.5513918806
 H         -3.9849402010        1.4697816865        1.6693841016
 H         -5.3658965634        0.8342222559        2.5335730054
 C         -5.0865087875       -0.0041469534        0.5575953233
 H         -5.8287864458        0.1815434258       -0.2174538687
 H         -5.3595760768       -0.9213631368        1.0832537846
 H         -3.5838708787        2.9977593103       -0.0523362585
 H         -4.2153600241        3.7690775202       -1.4982726896
 H         -3.2456010638        1.9898092422       -2.5155633770
 H         -4.8278411678        1.2748402753       -2.2061197667
 O         -1.9703998164        0.3695088067       -1.5032521010
 C         -1.1290044680       -0.6317923491       -1.0312373251
 O         -0.0202095460       -0.6434949030       -1.5961154227
 O         -3.3725693809       -2.0558038594        1.4256082198
 C         -0.7310876036       -2.5502469193        0.5948191416
 C          0.5612487843       -1.9197225609        1.0433025826
 C          0.6203187289       -1.2537285706        2.2637773978
 C          1.7735485888       -0.5991137735        2.6558029908
 C          2.8785722827       -0.5655032996        1.8230819623
 C          2.8181040300       -1.2075460168        0.5931015818
 C          1.6782463340       -1.9086723033        0.2236037620
 H          1.6433755097       -2.4051546185       -0.7332152515
 N          3.9070930222       -1.1203151211       -0.2904559086
 S          4.6771511196        0.3580854304       -0.4258041272
 O          5.1827739373        0.4030932380       -1.7809525771
 O          5.6789006346        0.4656439790        0.6086416575
 C          3.4475320897        1.6326730782       -0.1786501101
 C          3.7651310554        2.6996485809        0.6390622464
 C          2.8333860192        3.7075561170        0.8254188736
 C          1.6000019429        3.6309353209        0.1967890909
 C          1.2974942138        2.5540457307       -0.6211375634
 C          2.2277217325        1.5455819595       -0.8187056863
 H          1.9814050228        0.6985425974       -1.4391809217
 H          0.3367614122        2.4764699837       -1.1061715245
 H          0.8701405496        4.4112789739        0.3455556631
 H          3.0689887558        4.5452333810        1.4619880842
 H          4.7307654214        2.7129452315        1.1183256989
 H          3.7138042462       -1.5083744849       -1.2024970935
 H          3.7813048039       -0.0471143655        2.1041953424
 H          1.8103618578       -0.0978579950        3.6108651873
 H         -0.2537834665       -1.2484444356        2.8998896420
 H         -1.2885043660       -2.8675259540        1.4903006598
 C         -0.5223255068       -3.7997414095       -0.2470143469
 C         -1.6736909722       -4.4097732454       -0.9882223819
 C         -0.5298710054       -3.8074571685       -1.7448770725
 H          0.1546752500       -4.4731959424       -2.2508681890
 H         -0.6868850588       -2.8738276492       -2.2607662704
 H         -1.7839673033       -5.4836123506       -0.9836810045
 H         -2.6109267262       -3.8725474822       -0.9713221607
 H          0.1633467412       -4.4915433254        0.2336674775
