  62
        -98.93918218
 C          1.9786865414        1.3385482625        0.0033156772
 C          2.5876483161        0.6543270204        1.0793437936
 C          3.7756340510       -0.1564605044        0.7611612310
 C          4.1999339054       -0.2324110512       -0.5144415039
 C          5.3911869299       -0.9397842487       -1.1262912185
 C          6.1486807441       -2.0127293167       -0.3482161428
 C          5.3528279972       -3.2889414545       -0.0775056264
 H          5.9566042661       -3.9395209407        0.5589532160
 H          5.1927196056       -3.8075057232       -1.0262214276
 C          3.9863823283       -3.0879004623        0.5731171387
 H          3.5332512183       -4.0737583338        0.7104370916
 H          3.3367489534       -2.5290978603       -0.1043634403
 C          4.0065894462       -2.3914431075        1.9327028454
 H          4.6872469614       -2.9179463388        2.6044232668
 H          3.0001641565       -2.4641930886        2.3542750963
 C          4.3927257407       -0.9017952033        1.9096482985
 H          5.4723360014       -0.7729493223        1.9148040354
 H          4.0026997795       -0.4390159966        2.8209007906
 H          6.5371594232       -1.6030015064        0.5794478393
 H          7.0129203619       -2.2872149408       -0.9591477981
 H          6.0976277601       -0.1483073250       -1.4000491531
 H          5.0301261111       -1.3678300629       -2.0669376612
 O          3.5641478760        0.4298327362       -1.5249097697
 C          2.4439691844        1.2154215691       -1.3046031599
 O          1.9710795671        1.7334384572       -2.3328270619
 O          2.1572078857        0.7160795464        2.2634708021
 C          0.7504381671        2.1895288985        0.2705714809
 C         -0.4411010990        1.6062389740       -0.4492404462
 C         -1.2958098093        2.3498069304       -1.2513089449
 C         -2.3613837735        1.7409771941       -1.8932096491
 C         -2.6043195492        0.3888566132       -1.7423054399
 C         -1.7683502807       -0.3602812106       -0.9226326110
 C         -0.7036404630        0.2514810289       -0.2800906671
 H         -0.0513178087       -0.3348574638        0.3553050172
 N         -2.0150572022       -1.7314254275       -0.7453755638
 S         -3.5947799087       -2.2308212467       -0.5159582571
 O         -3.4957920560       -3.4583284612        0.2422932732
 O         -4.2623353969       -2.3315320567       -1.7899701284
 C         -4.3566230062       -0.9491249816        0.4641320267
 C         -5.4441211531       -0.2578334357       -0.0293640940
 C         -6.0002310442        0.7532650559        0.7380042405
 C         -5.4591215799        1.0563177885        1.9775224920
 C         -4.3686412415        0.3496205471        2.4615619948
 C         -3.8100944236       -0.6635224013        1.6997312695
 H         -2.9644834179       -1.2335257004        2.0506761013
 H         -3.9486523474        0.5855839833        3.4262252080
 H         -5.8887037264        1.8471237205        2.5719127779
 H         -6.8495702821        1.3026568313        0.3653348122
 H         -5.8307311990       -0.5241128214       -0.9995891233
 H         -1.3846620348       -2.1853376148       -0.1016246943
 H         -3.4164724069       -0.1018173522       -2.2535579437
 H         -3.0096531530        2.3283401315       -2.5251426385
 H         -1.1219579418        3.4044035083       -1.3853529145
 H          0.5685185960        2.1046700266        1.3523011678
 C          1.0190694908        3.6404563944       -0.0657395901
 C          0.2714568302        4.7287113464        0.6434844871
 C          1.7216532224        4.4988008590        0.9417695206
 H          2.4440988676        5.2198154899        0.5897491474
 H          1.9861410311        4.0427152882        1.8847177732
 H         -0.0018884815        5.6131007114        0.0881570951
 H         -0.4511420472        4.4341571703        1.3891496759
 H          1.2733795388        3.7861110665       -1.1093943915
