  62
        -98.92788836
 C          2.3065219869        0.8357019885        0.1239581029
 C          2.9214711856       -0.1007949098        0.9900013455
 C          3.9064619557       -1.0281272668        0.4031130770
 C          4.1388386982       -0.9651766697       -0.9210522460
 C          5.1123807128       -1.7724098369       -1.7378956497
 C          6.5666995002       -1.3092497494       -1.5544223925
 C          6.9736817085       -1.0239682212       -0.1111638750
 H          7.9818071901       -0.6014294284       -0.1278058381
 H          6.3109112726       -0.2626983039        0.3044385825
 C          6.9928124843       -2.2397510703        0.8122842576
 H          7.3842585537       -1.9079271699        1.7774505885
 H          7.6856013213       -2.9831905154        0.4116693041
 C          5.6421563754       -2.9161723943        1.0560937390
 H          5.3530439674       -3.5326970375        0.2092670332
 H          5.7667387819       -3.5945243170        1.9053389886
 C          4.5094429120       -1.9629149289        1.4241357629
 H          3.6708428116       -2.5522913897        1.8148641026
 H          4.8296607912       -1.3314823063        2.2609607472
 H          7.2264251905       -2.0684220920       -1.9778554249
 H          6.7017809214       -0.3877155195       -2.1257862031
 H          4.8328312989       -1.6332014801       -2.7844867080
 H          5.0093901386       -2.8281990148       -1.5054265350
 O          3.4974067443       -0.0729230242       -1.7246496669
 C          2.5768275520        0.8450429247       -1.2454296764
 O          2.0947714090        1.5748895252       -2.1274693826
 O          2.6646482177       -0.1629667130        2.2249824015
 C          1.3033494491        1.7990749778        0.7462842278
 C         -0.0676177556        1.5513540051        0.1675521941
 C         -0.5868211356        2.1514848863       -0.9737906798
 C         -1.8495033310        1.8159246114       -1.4324421404
 C         -2.6221392243        0.8725953426       -0.7811194069
 C         -2.1133841806        0.2551019831        0.3534920710
 C         -0.8533751167        0.6031563544        0.8170341523
 H         -0.4612784778        0.1140953237        1.7002950954
 N         -2.8717963812       -0.7276033071        1.0121379738
 S         -4.4768647800       -0.3996709692        1.3753193703
 O         -4.6954149785        1.0137736071        1.5774734819
 O         -4.7942535392       -1.2653930377        2.4899310266
 C         -5.3669097122       -0.9572012527       -0.0622598050
 C         -5.1827731783       -2.2614786540       -0.4774512782
 C         -5.8761801092       -2.7138988980       -1.5885618922
 C         -6.7395969686       -1.8605848243       -2.2596078571
 C         -6.9167924263       -0.5551986201       -1.8275723740
 C         -6.2251591004       -0.0960118160       -0.7173619497
 H         -6.3272247246        0.9121893601       -0.3484117314
 H         -7.5889933647        0.1061660624       -2.3502587814
 H         -7.2776688640       -2.2154907623       -3.1243938703
 H         -5.7410090709       -3.7283707943       -1.9277173638
 H         -4.5057606457       -2.8932875263        0.0731728933
 H         -2.4016560361       -1.1430167148        1.8033222636
 H         -3.6033741014        0.6108885534       -1.1417043491
 H         -2.2333681186        2.2952593956       -2.3202605795
 H          0.0016189477        2.8573610888       -1.5314566663
 H          1.2530850383        1.4690637443        1.7960619817
 C          1.8369787353        3.2245010884        0.8162575480
 C          2.0351418797        4.1576930057       -0.3388999859
 C          0.9736702098        4.4425955460        0.6799786357
 H          1.1322390876        5.2596297042        1.3681697973
 H         -0.0581599668        4.2987785034        0.3999207702
 H          2.9263580893        4.7696769538       -0.3298269831
 H          1.7620202646        3.8244459221       -1.3256202384
 H          2.6120213518        3.2801171586        1.5775821198
