  62
        -98.93396741
 C         -2.4642745708       -1.2504000891        0.3318353992
 C         -2.5561242904       -0.3603452891       -0.7635263209
 C         -3.5389242402        0.7398566011       -0.6469147912
 C         -4.2513839305        0.8613095412        0.4876199586
 C         -5.2692551305        1.9116526514        0.8448010383
 C         -4.6256310403        3.2566410813        1.2187972385
 C         -3.4937194100        3.7054741011        0.2980802288
 H         -3.0538237700        4.6086014210        0.7295503289
 H         -2.7147999601        2.9404735009        0.2872758490
 C         -3.9096429195        4.0270136911       -1.1354118113
 H         -4.6623844494        4.8183284212       -1.1203457416
 H         -3.0272535793        4.4175518609       -1.6486277311
 C         -4.4532985195        2.8537390412       -1.9534832715
 H         -5.4818125096        2.6297812614       -1.6834016518
 H         -4.4698189191        3.1685094812       -3.0009507415
 C         -3.6045393697        1.5875141310       -1.8946158912
 H         -2.5667009396        1.8380263309       -2.1422131309
 H         -3.9343044796        0.9111047911       -2.6925591713
 H         -5.4062489302        4.0189501614        1.2385101082
 H         -4.2173656906        3.1660320912        2.2285946786
 H         -5.9799225602        2.0342599315        0.0330211281
 H         -5.8163930808        1.5355729315        1.7122155281
 O         -4.0865195010        0.0108803912        1.5426773087
 C         -3.2006441212       -1.0468345690        1.5000353290
 O         -3.1498335316       -1.7186227489        2.5510761790
 O         -1.8561648801       -0.4585643993       -1.8036887906
 C         -1.5005100611       -2.4240337093        0.3296929795
 C         -0.1431010008       -1.9804600095       -0.1599068201
 C          0.5212671594       -2.5604005097       -1.2316330299
 C          1.7739743196       -2.1066197399       -1.6069333395
 C          2.3895895296       -1.0724085000       -0.9272529394
 C          1.7358970293       -0.4866709798        0.1492159504
 C          0.4854963291       -0.9482645896        0.5274113901
 H         -0.0242279910       -0.4917597895        1.3688643599
 N          2.3533287493        0.5747083201        0.8398954906
 S          3.8809037091        0.2864978798        1.4805569210
 O          4.0540355787       -1.1067678602        1.8232112211
 O          4.0233110589        1.2359510898        2.5631185411
 C          4.9920937595        0.7341216296        0.1640370714
 C          5.9052644095       -0.1877326006       -0.3090687783
 C          6.7644263399        0.1849743393       -1.3311731081
 C          6.6959618703        1.4657337093       -1.8577935681
 C          5.7748358003        2.3805232594       -1.3691943484
 C          4.9137926599        2.0149043996       -0.3468984287
 H          4.1855719499        2.6949984797        0.0627506711
 H          5.7245858206        3.3754855094       -1.7813808485
 H          7.3643181206        1.7530134991       -2.6540720280
 H          7.4812806999       -0.5243944009       -1.7123604379
 H          5.9167116092       -1.1737822906        0.1271070217
 H          1.7602568992        0.9944315502        1.5415147204
 H          3.3611418197       -0.7117853801       -1.2231364091
 H          2.2755957898       -2.5619583200       -2.4471463694
 H          0.0501450794       -3.3536368596       -1.7879723300
 H         -1.3923878914       -2.7007306093        1.3924531995
 C         -2.0261672411       -3.6608523092       -0.3838920906
 C         -3.4982312911       -3.9219133789       -0.4934559511
 C         -2.7026703806       -3.5917991491       -1.7186833408
 H         -2.5110567706       -4.3814151792       -2.4305075008
 H         -2.8224245203       -2.6185560891       -2.1666148809
 H         -3.8495080213       -4.9343660689       -0.3617307911
 H         -4.1703595511       -3.1730378888       -0.0995325613
 H         -1.4003510113       -4.5285125993       -0.1980464104
