  62
        -98.94268624
 C          1.4387002957        1.0796474765        0.0463262454
 C          2.7793019033        1.5412118115        0.0724855003
 C          3.7811933753        0.5869311597        0.5607855344
 C          3.3891315440       -0.6200145840        1.0063652709
 C          4.2873245876       -1.6973860479        1.5509463167
 C          4.9328339351       -2.5754056677        0.4701156924
 C          6.0427713804       -1.9021573116       -0.3382599611
 H          6.7739935258       -1.4656706169        0.3428961242
 H          6.5511012192       -2.6876131182       -0.9011420080
 C          5.5501340836       -0.8314136114       -1.3219915947
 H          4.4763810793       -0.9520052035       -1.4840821621
 H          6.0366149016       -0.9738705824       -2.2896655396
 C          5.8262482348        0.6072460512       -0.8843077889
 H          6.9043549535        0.7787387855       -0.8478932155
 H          5.4045508747        1.2813749354       -1.6346971744
 C          5.2254943238        0.9786087507        0.4778876556
 H          5.7947808502        0.5101358866        1.2804988556
 H          5.2832807177        2.0637218149        0.5941085993
 H          5.3572236863       -3.4489470318        0.9703293938
 H          4.1515955589       -2.9271233490       -0.2075385555
 H          3.6629878577       -2.3319818752        2.1833336980
 H          5.0653533110       -1.2486663673        2.1692020562
 O          2.0853279404       -0.9988999480        1.0339317259
 C          1.0765667289       -0.1737204244        0.5445987429
 O         -0.0592404271       -0.6709973726        0.6272998624
 O          3.1220343014        2.6982689478       -0.2903556685
 C          0.3808980096        2.0224877061       -0.4983610948
 C         -0.8249941217        2.0302595023        0.4045404129
 C         -0.6979053186        2.5585062222        1.6867538420
 C         -1.7677087358        2.5574657399        2.5600735268
 C         -2.9852574863        2.0243181404        2.1751315914
 C         -3.1231316402        1.4983019587        0.8963093473
 C         -2.0496035107        1.5110487850        0.0167670701
 H         -2.1809454941        1.0914577418       -0.9657940411
 N         -4.3520257379        0.9723937241        0.4772589282
 S         -4.4578029991       -0.2500249943       -0.6503865872
 O         -4.1534644864        0.2592055649       -1.9650688256
 O         -5.8038882866       -0.7588357496       -0.4787196543
 C         -3.2928773517       -1.5173915097       -0.1885388827
 C         -3.2812552419       -1.9685671868        1.1150156981
 C         -2.4102218989       -2.9866929003        1.4621718530
 C         -1.5743875895       -3.5378940295        0.5047338835
 C         -1.6023482118       -3.0772265921       -0.8006182571
 C         -2.4687068844       -2.0562106828       -1.1525702434
 H         -2.5128569310       -1.6610657173       -2.1550563534
 H         -0.9448232078       -3.5012045700       -1.5436071862
 H         -0.8899949125       -4.3253377269        0.7796502945
 H         -2.3786270516       -3.3423688372        2.4797928235
 H         -3.9431199219       -1.5241571642        1.8408589268
 H         -5.0543011468        0.8862806877        1.1963056623
 H         -3.8215899726        2.0152205543        2.8573555688
 H         -1.6533230750        2.9680495246        3.5520402030
 H          0.2580620592        2.9617135158        1.9925929304
 H          0.8499167032        3.0197356318       -0.4525407682
 C          0.0293813468        1.7741958059       -1.9576118213
 C          1.0554502231        1.2635797260       -2.9230954571
 C         -0.0993104140        0.3950634067       -2.5283635279
 H         -0.8817200417        0.2174713816       -3.2525016764
 H          0.0813049528       -0.4384473355       -1.8673471217
 H          1.0743775343        1.6773426422       -3.9201502040
 H          2.0330968903        1.0225931385       -2.5316092455
 H         -0.6608467475        2.5207481300       -2.3399943824
