  62
        -98.93451192
 C         -1.6797938208       -0.1617866193        0.2572367604
 C         -2.8353164210       -0.8949553590       -0.1035902898
 C         -3.9702230908       -0.1109839487       -0.6263812296
 C         -3.8558100205        1.2198995813       -0.7646829993
 C         -4.8637458003        2.1973117817       -1.3152271091
 C         -6.3236494903        2.0372880319       -0.8669124992
 C         -6.5129403004        1.4912183916        0.5558905407
 H         -5.5629347904        1.5053695113        1.0927306207
 H         -7.2020434303        2.1428046817        1.0965297409
 C         -7.0918161407        0.0743739317        0.5799834004
 H         -7.8927539308        0.0110353421       -0.1599708396
 H         -7.5388131608       -0.1055518884        1.5607364104
 C         -6.0878775310       -1.0498511784        0.3274435502
 H         -5.4157703010       -1.1457599787        1.1844908302
 H         -6.6445840812       -1.9870506083        0.2514931100
 C         -5.2181008210       -0.8895619884       -0.9300274698
 H         -4.8870843212       -1.8847164784       -1.2388430200
 H         -5.7819993209       -0.4431259281       -1.7453245997
 H         -6.8508844905        1.3902263321       -1.5666884793
 H         -6.7862105901        3.0228646020       -0.9421692290
 H         -4.4951377101        3.1816873615       -1.0173146789
 H         -4.8185315003        2.1535300719       -2.4072555691
 O         -2.7151638204        1.8855833210       -0.4285081392
 C         -1.6182745805        1.2251425507        0.0910320007
 O         -0.6586173503        1.9722410004        0.3684857908
 H          2.1041037692       -0.1008068401        0.2465519704
 C          1.7575006790       -0.9097656299       -0.3783025898
 C          0.4614457089       -1.3820690797       -0.2323507299
 C          0.0237287887       -2.4096242394       -1.0609843901
 C          0.8722427586       -2.9488183994       -2.0101009802
 C          2.1737013487       -2.4948612997       -2.1339158001
 C          2.6207590489       -1.4690409799       -1.3098090699
 N          3.9303633890       -0.9819823002       -1.4153140498
 S          4.7709117691       -0.4985364606       -0.0521041797
 O          6.1634869991       -0.6161047909       -0.4287872898
 O          4.3637297090       -1.2405603508        1.1176339401
 C          4.3698005395        1.2253751094        0.1293300406
 C          3.8923389096        1.6973781893        1.3351941007
 C          3.6074343399        3.0476172493        1.4620258210
 C          3.8061800601        3.8977821095        0.3857286012
 C          4.2900458000        3.4088148896       -0.8183699789
 C          4.5767064497        2.0601521296       -0.9508377192
 H          4.9577836896        1.6438839797       -1.8684431893
 H          4.4423019301        4.0746625897       -1.6525967088
 H          3.5806036903        4.9476192995        0.4870441214
 H          3.2274460300        3.4289739992        2.3962735011
 H          3.7482381995        1.0014315391        2.1471618706
 H          4.5192327289       -1.4762874402       -2.0693526299
 H          2.8399972386       -2.9294547997       -2.8637695702
 H          0.5213375584       -3.7428862392       -2.6520092504
 H         -0.9854681114       -2.7762145792       -0.9547049402
 C         -0.4264854909       -0.7948581197        0.8387475402
 H          0.1288667993        0.0294009101        1.3070493604
 C         -0.7100760911       -1.8406043299        1.9017226800
 C          0.4104757888       -2.2736564203        2.7970866299
 C         -0.7099815911       -1.4424141502        3.3451511101
 H         -1.4214760611       -1.9102703001        4.0091690500
 H         -0.5097829908       -0.4067815503        3.5795270903
 H          1.3762698989       -1.8103252005        2.6543351900
 H          0.4664140786       -3.3127583504        3.0838968397
 H         -1.4232766913       -2.5910840997        1.5879360799
 O         -2.9424440512       -2.1467726890       -0.0139559900
