  62
        -98.94503521
 C          2.2045725866        0.8355036244       -0.0633836443
 C          3.0948374292        0.5627871618        1.0082265562
 C          3.8808260665       -0.6726378760        0.9058588260
 C          3.6944020010       -1.4815226493       -0.1528404366
 C          4.4497748369       -2.7532765794       -0.4058941897
 C          5.7053706757       -2.4969288507       -1.2510021730
 C          6.5731015200       -1.3494161821       -0.7340628574
 H          7.4470024910       -1.2837046414       -1.3857756883
 H          6.0222839156       -0.4119643846       -0.8390544683
 C          7.0313045400       -1.5066852983        0.7225671879
 H          6.9253063797       -2.5463713259        1.0342014177
 H          8.0923466803       -1.2562582259        0.7846088714
 C          6.3013267976       -0.6024102491        1.7175020686
 H          6.3228953688        0.4293520899        1.3580373126
 H          6.8459332805       -0.6305485006        2.6649603804
 C          4.8446762156       -0.9779726212        2.0180798829
 H          4.5156950934       -0.3777005452        2.8712774184
 H          4.7862393887       -2.0319366732        2.2977490005
 H          5.3931824263       -2.2588251573       -2.2705239329
 H          6.2933540191       -3.4160061996       -1.2818408378
 H          4.7252237289       -3.2005689465        0.5472851780
 H          3.7935275523       -3.4406083590       -0.9428258705
 O          2.8157439867       -1.2026541326       -1.1476401367
 C          2.0535756096       -0.0431738608       -1.1361882884
 O          1.3087085437        0.0704638927       -2.1303404339
 O          3.2262105086        1.3226402642        2.0041539952
 C          1.3717219406        2.1052009289        0.0313626009
 C         -0.0381593646        1.7243764976        0.4127722278
 C         -0.4209821868        1.7260928925        1.7504043881
 C         -1.6868354553        1.3116567192        2.1227345428
 C         -2.5923756418        0.8748440247        1.1718107824
 C         -2.2130047418        0.8522808566       -0.1632814965
 C         -0.9522651751        1.2940392029       -0.5378754325
 H         -0.6622891630        1.2519938112       -1.5763190306
 N         -3.1171841396        0.3760930877       -1.1335201333
 S         -3.7285381003       -1.1721521576       -0.8849483615
 O         -2.8272438919       -1.9808428658       -0.0957998369
 O         -4.0600959747       -1.6713910349       -2.2018884001
 C         -5.2394900112       -0.8862320155        0.0153013253
 C         -6.2035346366       -0.0881422811       -0.5692662419
 C         -7.3875777641        0.1400098965        0.1135084468
 C         -7.5875876273       -0.4323323140        1.3610665248
 C         -6.6116071398       -1.2340339344        1.9328995308
 C         -5.4244966082       -1.4657926860        1.2552090310
 H         -4.6352309184       -2.0784232334        1.6614430437
 H         -6.7688400874       -1.6789812149        2.9023528741
 H         -8.5099329786       -0.2533461909        1.8907508452
 H         -8.1492688143        0.7620659679       -0.3282758754
 H         -6.0094044663        0.3324101474       -1.5417296564
 H         -2.7500204752        0.4459758536       -2.0728969329
 H         -3.5768054892        0.5393137808        1.4546792852
 H         -1.9704750759        1.3233105085        3.1641077594
 H          0.2940451602        2.0380441060        2.4983390268
 H          1.8052231367        2.6700734089        0.8673106409
 C          1.4446306193        2.9590963756       -1.2173764573
 C          0.9897442730        4.3853618808       -1.1488328658
 C          2.4480185994        4.0695974524       -1.2862680422
 H          2.9334967566        4.2659113651       -2.2305451108
 H          3.0864680239        4.2207415277       -0.4281495515
 H          0.4709938037        4.8020901661       -1.9984048630
 H          0.6379035022        4.7494316982       -0.1955218380
 H          1.2549615002        2.4110600628       -2.1313232385
