  62
        -98.94087806
 C          1.8419907907        0.7211513716        0.5492630392
 C          2.3107252267       -0.0277947234       -0.5588283814
 C          3.4489158806       -0.9187894973       -0.2867786492
 C          3.9256399635       -1.0425089140        0.9641130742
 C          5.0680052027       -1.9205874339        1.3970486609
 C          6.4511724773       -1.2870321978        1.1936930831
 C          6.9202242305       -1.2008141287       -0.2593220949
 H          7.9810491085       -0.9434031616       -0.2381192697
 H          6.8330326463       -2.1822333315       -0.7266754022
 C          6.1766323054       -0.1577794842       -1.1054065281
 H          5.6569222970        0.5421709315       -0.4469931360
 H          6.8983841696        0.4237806418       -1.6832570165
 C          5.1714277315       -0.7448709786       -2.0964937983
 H          5.6990077995       -1.3436899829       -2.8421501141
 H          4.6799948354        0.0815023449       -2.6164570411
 C          4.0835156642       -1.6147021937       -1.4527110485
 H          3.3026547752       -1.7961471237       -2.1956174092
 H          4.5015282065       -2.5727625210       -1.1440961192
 H          6.4462109484       -0.2876204878        1.6351012986
 H          7.1710196672       -1.8917545592        1.7500760771
 H          4.9286895713       -2.1091020823        2.4638717744
 H          5.0206694242       -2.8725830190        0.8673895189
 O          3.3853610838       -0.3753616225        2.0190956655
 C          2.3491871288        0.5267657772        1.8363855493
 O          1.9583006092        1.0730340181        2.8880344408
 H         -0.6145148825       -0.4821712477        1.0347840599
 C         -1.0032021856       -0.0519827625        0.1191920883
 C         -0.4259423522        1.1117322204       -0.3762501422
 C         -0.9339219375        1.6555872765       -1.5477619723
 C         -1.9746646507        1.0326249271       -2.2151918746
 C         -2.5342906676       -0.1339725299       -1.7293854204
 C         -2.0405486887       -0.6806354771       -0.5510692454
 N         -2.6100490648       -1.8603008315       -0.0419141938
 S         -4.2783094408       -1.9843058395       -0.0254375416
 O         -4.5796446638       -2.8891626613        1.0619227782
 O         -4.7495410276       -2.3880637083       -1.3267006685
 C         -4.8657028823       -0.3407506550        0.3459329394
 C         -5.6394592317        0.3406187757       -0.5711497940
 C         -6.0523136000        1.6295641626       -0.2735318820
 C         -5.6832706389        2.2126158039        0.9284991841
 C         -4.9089739495        1.5133278830        1.8419504310
 C         -4.4944483049        0.2242351611        1.5500654991
 H         -3.8960646922       -0.3478292593        2.2412791933
 H         -4.6232275120        1.9677451245        2.7771201461
 H         -6.0006406466        3.2176856400        1.1573556129
 H         -6.6560467194        2.1749081234       -0.9807565936
 H         -5.9021349018       -0.1498872875       -1.4941666970
 H         -2.2081548358       -2.1697002159        0.8302270623
 H         -3.3310125661       -0.6403598803       -2.2496552678
 H         -2.3509392612        1.4585532362       -3.1326498372
 H         -0.4968412805        2.5515963189       -1.9558731012
 C          0.7063377881        1.7210593973        0.4139238353
 H          0.3456449479        1.8784109619        1.4439861593
 C          1.1402156377        3.0849783489       -0.1027398758
 C          2.5298535655        3.5930628368        0.1377643968
 C          2.0889224878        3.2459462888       -1.2508084874
 H          1.9165496465        4.0526460656       -1.9483467049
 H          2.4771506380        2.3501611616       -1.7081905241
 H          2.6585139383        4.6337705369        0.3949529243
 H          3.2253104481        2.9327242012        0.6359546700
 H          0.3439016128        3.8183452696       -0.0227179549
 O          1.8194380665        0.0326111700       -1.7141230960
