  62
        -98.93683488
 C          1.0693124930        0.7611539615        0.9632038051
 C          1.6978869669        0.6746533011       -0.3031577339
 C          2.3608231920       -0.6042721042       -0.6176024967
 C          2.2502543004       -1.6372393855        0.2320158486
 C          2.7816612600       -3.0406555637        0.0794079162
 C          4.2146146292       -3.2020971455       -0.4481876003
 C          5.1836678675       -2.0758562853       -0.0594360138
 H          4.7365188842       -1.4473408956        0.7124717222
 H          6.0881574232       -2.5176405430        0.3626216775
 C          5.5980056006       -1.2063617210       -1.2490974720
 H          5.8014593428       -1.8561547296       -2.1030104697
 H          6.5291264503       -0.6917007628       -1.0002386368
 C          4.5881267822       -0.1371923921       -1.6651147066
 H          4.5485950146        0.6491866714       -0.9062701576
 H          4.9479977148        0.3255955204       -2.5871725765
 C          3.1515817495       -0.6363465176       -1.8929039691
 H          2.6513200772        0.0593177500       -2.5725897157
 H          3.1415111611       -1.6245096314       -2.3472016302
 H          4.1932673064       -3.2921111370       -1.5335065140
 H          4.5871681077       -4.1524273402       -0.0619208739
 H          2.7063689290       -3.4841416308        1.0754437239
 H          2.0950319843       -3.5903605607       -0.5719612742
 O          1.5549209088       -1.5410361207        1.4009346872
 C          0.9569592012       -0.3542110164        1.7935075423
 O          0.3545490005       -0.4260152212        2.8837571952
 H         -1.4800863420        0.4675003827        0.2967748157
 C         -1.4837199031        1.4365980243       -0.1794914081
 C         -0.6088230560        2.4130746523        0.2809698034
 C         -0.6216639771        3.6591682459       -0.3282742271
 C         -1.4701972640        3.8992826598       -1.3961739072
 C         -2.2995607648        2.9072534479       -1.8858692290
 C         -2.2995958195        1.6578037875       -1.2739742352
 N         -3.1284321103        0.6230080507       -1.7299796042
 S         -2.6830414414       -0.9778176678       -1.5406606815
 O         -1.2580989826       -1.1793088211       -1.6657319833
 O         -3.5081437106       -1.6848808882       -2.4989434963
 C         -3.2403093871       -1.3807842698        0.1012648976
 C         -4.5594326915       -1.1256862387        0.4215450972
 C         -5.0096367896       -1.4304221019        1.6956358203
 C         -4.1378232407       -1.9800374979        2.6240618654
 C         -2.8180371272       -2.2356891256        2.2860192097
 C         -2.3642525839       -1.9369890343        1.0111196759
 H         -1.3392591822       -2.1101025146        0.7180182712
 H         -2.1306110977       -2.6488715906        3.0068419683
 H         -4.4857344686       -2.2104328927        3.6186366471
 H         -6.0354117341       -1.2348870715        1.9635789079
 H         -5.2037527977       -0.6974904392       -0.3279397184
 H         -3.5939803081        0.7948206017       -2.6086811653
 H         -2.9342607809        3.0899797433       -2.7395315772
 H         -1.4678667317        4.8690377784       -1.8706341415
 H          0.0520535261        4.4300007795        0.0081545570
 C          0.3180456085        2.0095020952        1.4013366982
 H         -0.3057540100        1.6761320844        2.2476216535
 C          1.1884608677        3.1398389286        1.9257793849
 C          2.5332349525        2.8585153954        2.5258414373
 C          2.4319529206        3.5981845397        1.2274505759
 H          2.6546028178        4.6554369061        1.2247398889
 H          2.7092718343        3.0909035813        0.3177010008
 H          2.8262967748        3.4032522771        3.4108274713
 H          2.8826128404        1.8359698072        2.5056966069
 H          0.5973996941        3.9073678960        2.4161559525
 O          1.7160188022        1.6106333886       -1.1431296934
