  62
        -98.94344074
 C          1.8703388597        0.8314352694        0.7150166595
 C          2.2046788980        0.4342072676       -0.6022340133
 C          3.6377413580        0.4567543089       -0.9297670905
 C          4.5206899420        0.8703067204       -0.0024011610
 C          6.0103270856        0.8888133870       -0.1845802399
 C          6.6426858312       -0.4275852885        0.2887605983
 C          5.9545602337       -1.6764917111       -0.2624930760
 H          6.5030371597       -2.5427588414        0.1139700351
 H          4.9425708353       -1.7357900021        0.1448672986
 C          5.8867468911       -1.7401607614       -1.7947526310
 H          6.6129290427       -1.0503172254       -2.2262649775
 H          6.1652858527       -2.7462043521       -2.1155765677
 C          4.5033194719       -1.4521487981       -2.3811534826
 H          3.7562746129       -2.0755467841       -1.8829926275
 H          4.5158907542       -1.7373258341       -3.4364510603
 C          4.0379913180        0.0076449433       -2.3068165016
 H          4.8090423990        0.6616787728       -2.7187928039
 H          3.1396937790        0.1013019744       -2.9238357963
 H          7.6943558534       -0.4305600370       -0.0034349412
 H          6.5931559690       -0.4628513619        1.3796502798
 H          6.2411417903        1.0583470318       -1.2343669686
 H          6.4191164491        1.7105078533        0.4058241293
 O          4.1561990735        1.2766563287        1.2412437438
 C          2.8285092654        1.2512058506        1.6364968891
 O          2.6330045436        1.6181655141        2.8134765005
 H         -2.0877160992        0.0992193239        0.2726348731
 C         -1.4714511131       -0.7491463093        0.5194260591
 C         -0.1760242274       -0.5627278295        0.9766513922
 C          0.5816824834       -1.6846952813        1.3027104045
 C          0.0663490499       -2.9563581348        1.1479023461
 C         -1.2263212940       -3.1376839540        0.6884963932
 C         -1.9992372463       -2.0259923400        0.3801815744
 N         -3.3118281786       -2.1736235647       -0.0913356856
 S         -4.5130674983       -1.1452037884        0.4536130155
 O         -4.2774025381       -0.7232223706        1.8145773792
 O         -5.7456585546       -1.8681543163        0.2194872972
 C         -4.4590357232        0.2554155649       -0.6439642458
 C         -4.7591804081        1.5056476898       -0.1405222104
 C         -4.7701123973        2.5918032285       -1.0019915572
 C         -4.4815269285        2.4092099550       -2.3454789505
 C         -4.1831569016        1.1466420322       -2.8352575113
 C         -4.1755679458        0.0559456403       -1.9805024075
 H         -3.9441059242       -0.9369220572       -2.3281915917
 H         -3.9553660880        1.0089135968       -3.8800389887
 H         -4.4874201038        3.2559145737       -3.0137397572
 H         -5.0016823580        3.5742773845       -0.6218457160
 H         -4.9649519400        1.6048209618        0.9134188513
 H         -3.6373771800       -3.1271029408       -0.1555310028
 H         -1.6322155886       -4.1308871605        0.5698159368
 H          0.6724077423       -3.8154543857        1.3943426615
 H          1.5884492381       -1.5454790002        1.6735961661
 C          0.4198534758        0.8124560036        1.1588757131
 H          0.4251252263        1.0378086855        2.2361348114
 C         -0.3513010707        1.9003387196        0.4389233427
 C         -1.5099479690        2.5799463704        1.1025782352
 C         -0.2170722983        3.3141022341        0.9161071315
 H         -0.1736001307        4.1048037444        0.1825302998
 H          0.4067845887        3.4858244784        1.7815018686
 H         -1.7765517261        2.2586196943        2.0985740399
 H         -2.3531666619        2.8671491296        0.4926077872
 H         -0.3997253013        1.7338189871       -0.6312389664
 O          1.3540792980        0.0763585555       -1.4572949823
