  62
        -98.94132821
 C          2.6198467489        1.1547117638        0.3845846357
 C          2.4059929410        0.4024146052       -0.7981971310
 C          3.1059257714       -0.8905964910       -0.8713774273
 C          3.8807781245       -1.2865758897        0.1535384331
 C          4.5944310652       -2.6041711562        0.2341153645
 C          3.7222831080       -3.6635106377        0.9226806504
 C          2.2982867940       -3.7481665842        0.3713788990
 H          1.7860050499       -4.5479984304        0.9111154634
 H          1.7652363580       -2.8211668935        0.5988876689
 C          2.2155103474       -4.0168160681       -1.1376751725
 H          3.1658090708       -4.4155061560       -1.4953736863
 H          1.4540996409       -4.7793562275       -1.3147146475
 C          1.8272515317       -2.7997856808       -1.9798191499
 H          0.9177958673       -2.3456465095       -1.5744101492
 H          1.5903537938       -3.1483051216       -2.9888462451
 C          2.9008466341       -1.7117678394       -2.1127588672
 H          3.8410853274       -2.1617577443       -2.4383379633
 H          2.5663806093       -1.0121236420       -2.8843340302
 H          4.2103450951       -4.6340904711        0.8185976125
 H          3.6626398122       -3.4251919950        1.9872382761
 H          4.8575444271       -2.9312627436       -0.7697144957
 H          5.5082611462       -2.4664078332        0.8144612368
 O          4.0564342447       -0.5422657734        1.2755189942
 C          3.4100973708        0.6739660176        1.4309185887
 O          3.6110305075        1.2204811591        2.5345030577
 H          0.2566434554        0.7240879710        1.7168730315
 C         -0.2604061084        1.3125253528        0.9666108119
 C          0.4415834065        2.3009658271        0.2867361928
 C         -0.2258386563        3.0409594529       -0.6787567056
 C         -1.5566751316        2.7829247353       -0.9594850847
 C         -2.2479234252        1.7918060159       -0.2873192714
 C         -1.5893007048        1.0462361153        0.6819297841
 N         -2.2840198565        0.0334432102        1.3738453515
 S         -2.9745595963       -1.1856839125        0.4413132208
 O         -3.0749449947       -2.3248963637        1.3289359754
 O         -2.2489057719       -1.3935905186       -0.7898748007
 C         -4.6098158441       -0.5703578575        0.1011946010
 C         -5.0345095902       -0.4215276524       -1.2042989323
 C         -6.3125117901        0.0610564928       -1.4413061270
 C         -7.1374157376        0.3839531141       -0.3746774580
 C         -6.6962191622        0.2256234827        0.9308483419
 C         -5.4206725721       -0.2574927954        1.1747250615
 H         -5.0390604247       -0.3988207282        2.1720744517
 H         -7.3406022583        0.4777463057        1.7575188204
 H         -8.1301852693        0.7614884114       -0.5620640963
 H         -6.6573013205        0.1844154286       -2.4553716534
 H         -4.3543147872       -0.6783175747       -2.0008602214
 H         -1.7418549003       -0.3794317221        2.1200178112
 H         -3.2813864226        1.5833639817       -0.5115176721
 H         -2.0614366828        3.3582781744       -1.7205260710
 H          0.3043506401        3.7968010058       -1.2342274058
 C          1.9013528352        2.4724809590        0.6294942182
 H          1.9730324164        2.6336411045        1.7182227472
 C          2.5457250507        3.6833003384       -0.0265159395
 C          4.0235003772        3.7262768895       -0.2743091928
 C          3.0716235043        3.6605277327       -1.4288186421
 H          2.9443022917        4.5453000382       -2.0355216626
 H          2.9881410416        2.7375867833       -1.9796062881
 H          4.5962015443        2.8428437448       -0.0308421223
 H          4.5482728905        4.6513157399       -0.0884482127
 H          2.0894649530        4.6102276537        0.3073985185
 O          1.6739646570        0.7763307031       -1.7492333527
