  62
        -98.94290987
 C         -1.8093046581       -0.8810673997        0.2896860688
 C         -3.1638534208       -1.2209138337        0.5380627494
 C         -4.0929921567       -0.0964793818        0.6955891587
 C         -3.6248177233        1.1640563726        0.6633065872
 C         -4.4406201551        2.4168550905        0.8323880533
 C         -5.1176592919        2.8987129880       -0.4580191242
 C         -6.3016768104        2.0518798779       -0.9265069072
 H         -7.0058321715        1.9262321642       -0.1034320209
 H         -6.8119209391        2.6187429493       -1.7077667603
 C         -5.9139610041        0.6769992784       -1.4888744532
 H         -4.8481248062        0.6693938503       -1.7296892534
 H         -6.4521922813        0.5000377615       -2.4228444956
 C         -6.2209847915       -0.4978070067       -0.5597099447
 H         -5.8729776645       -1.4156863033       -1.0410970646
 H         -7.3009514952       -0.5812689339       -0.4195827312
 C         -5.5546389429       -0.4033152687        0.8193131994
 H         -6.0532272853        0.3511836879        1.4273749725
 H         -5.6504594843       -1.3728919009        1.3141965770
 H         -5.4746787293        3.9154352192       -0.2785550165
 H         -4.3672337187        2.9453359284       -1.2507027353
 H         -5.1950592452        2.2617526325        1.6041807737
 H         -3.7512500384        3.1935576336        1.1702385924
 O         -2.3076726908        1.4478885277        0.4914378504
 C         -1.3708733495        0.4430347297        0.2792180075
 O         -0.2130035105        0.8670457266        0.1131479013
 O         -3.5744255223       -2.4081109867        0.6308880325
 C         -0.8269807702       -2.0172991388        0.0750018284
 C          0.4370590521       -1.7893003922        0.8653889121
 C          0.3473840955       -1.6961792006        2.2526054602
 C          1.4757555312       -1.4936493384        3.0218822477
 C          2.7198623735       -1.3840908910        2.4250244617
 C          2.8230138455       -1.4813031651        1.0428981770
 C          1.6851313851       -1.6862056421        0.2719979764
 H          1.7922235052       -1.7353770076       -0.7981665545
 N          4.0829862557       -1.4260632608        0.4232772973
 S          4.4090619257       -0.4816092347       -0.9159633712
 O          3.4993788456       -0.8028754107       -1.9844568292
 O          5.8122840706       -0.7151272100       -1.1823230977
 C          4.1939017228        1.2056202581       -0.3767610577
 C          2.9218396267        1.6888212775       -0.1453937289
 C          2.7793791870        2.9903553740        0.3117837350
 C          3.8972463888        3.7807931209        0.5273334252
 C          5.1681100967        3.2779877466        0.2907424836
 C          5.3199255988        1.9776653170       -0.1613644299
 H          6.2870808531        1.5449775754       -0.3604448307
 H          6.0374244358        3.8933425018        0.4585034034
 H          3.7763287426        4.7927022618        0.8811657379
 H          1.7852807352        3.3659565129        0.4958895980
 H          2.0561372832        1.0677963513       -0.3113094417
 H          4.8551474387       -1.3636824345        1.0715015953
 H          3.6039859427       -1.2283227475        3.0245825813
 H          1.3887475135       -1.4188081260        4.0954198116
 H         -0.6254764791       -1.7790852553        2.7184868275
 H         -1.3337190052       -2.9007963087        0.4998358042
 C         -0.5639743769       -2.3326710079       -1.3900682914
 C         -1.5991662548       -2.0731227626       -2.4422197043
 C         -0.3418302528       -1.2595859206       -2.4114944130
 H          0.4072251931       -1.4231839879       -3.1728843429
 H         -0.3991598164       -0.2344999927       -2.0800232231
 H         -1.7247861107       -2.8018619233       -3.2288769678
 H         -2.5206447162       -1.6003531271       -2.1341544941
 H          0.0196864756       -3.2408476499       -1.5100977376
