  62
        -98.93771922
 C          2.5559212994       -0.1594859729        0.5098440279
 C          2.0692041600       -0.7793951626       -0.6639544578
 C          1.3191490268       -2.0354557683       -0.4864924644
 C          1.1454535234       -2.5190085855        0.7560165535
 C          0.3412290077       -3.7187600291        1.1839948269
 C         -1.0939604432       -3.7523829799        0.6313179523
 C         -1.3268246422       -4.8924523368       -0.3604231681
 H         -0.8190282063       -5.7852276447        0.0106757025
 H         -2.3958512491       -5.1132681524       -0.3946301791
 C         -0.8675670858       -4.6027857036       -1.7878067876
 H         -1.5353227909       -3.8626748359       -2.2339547472
 H         -0.9695982668       -5.5267748598       -2.3621802967
 C          0.5690807555       -4.0931528989       -1.9296564006
 H          1.2351215385       -4.6152847099       -1.2446665401
 H          0.9035150181       -4.3307268020       -2.9420417495
 C          0.7094099301       -2.5758549496       -1.7509332064
 H          1.3378339226       -2.1704251366       -2.5510171113
 H         -0.2637327071       -2.0858973543       -1.8661737986
 H         -1.3288320494       -2.7903345262        0.1725453040
 H         -1.7781308211       -3.8808955977        1.4721186653
 H          0.8727252615       -4.6313378699        0.9071413847
 H          0.3217951302       -3.6794079987        2.2752819818
 O          1.7123083583       -1.9346815317        1.8528186786
 C          2.3785846401       -0.7266318305        1.7684201963
 O          2.7667575059       -0.2693854150        2.8647987739
 H          0.5233281841        1.2213827608        0.9115074017
 C          0.7722695134        1.9568744788        0.1598779313
 C          2.0993170523        2.1381611719       -0.2096920011
 C          2.3945422354        3.1080589171       -1.1582488015
 C          1.3771199533        3.8397253142       -1.7477835454
 C          0.0531939016        3.6084648055       -1.4232894461
 C         -0.2504319418        2.6552556384       -0.4569172203
 N         -1.5824189753        2.3937197286       -0.0837084809
 S         -1.9941483300        0.8091689171        0.3388435147
 O         -1.5888571119        0.5688975208        1.7020570207
 O         -1.5150251996       -0.1268864099       -0.6522608183
 C         -3.7725099532        0.9248152147        0.2642102392
 C         -4.4545648685        0.3577913176       -0.7950831349
 C         -5.8345401679        0.4810658971       -0.8474103282
 C         -6.5042897460        1.1689404264        0.1529713717
 C         -5.8058630993        1.7325043659        1.2109353782
 C         -4.4268790876        1.6106451055        1.2703998377
 H         -3.8422516613        2.0218567094        2.0767666382
 H         -6.3299696506        2.2646549649        1.9882630448
 H         -7.5776505231        1.2646655431        0.1095933684
 H         -6.3796632977        0.0408738517       -1.6667084033
 H         -3.8907776365       -0.1706320139       -1.5471032919
 H         -2.2495257860        2.7756254741       -0.7411480553
 H         -0.7388827960        4.1554973731       -1.9116745661
 H          1.6187199738        4.5849904778       -2.4904681406
 H          3.4182103646        3.2777306299       -1.4498886921
 C          3.1363280524        1.2411362550        0.4279751011
 H          3.2940420158        1.5694928152        1.4663850006
 C          4.4655249210        1.2453611268       -0.2965950581
 C          5.5116544845        2.2615494706        0.0481136343
 C          5.6957621309        0.8302242630        0.4509325318
 H          6.4364730924        0.2377015040       -0.0644586858
 H          5.5746906435        0.5688562229        1.4923769164
 H          5.2776888625        2.9774349492        0.8215899868
 H          6.1321455387        2.6518200616       -0.7444155770
 H          4.3738840932        0.9282645956       -1.3288966924
 O          2.2353068091       -0.2930132178       -1.8144513646
