  62
        -98.94327210
 C         -1.2684180670       -1.2109202157        0.2657476764
 C         -2.1456940224       -0.7346723653        1.2720213429
 C         -2.8116752749        0.5461644045        1.0003477587
 C         -2.5124808755        1.2133208455       -0.1289175377
 C         -3.1554845202        2.4993595869       -0.5587707146
 C         -4.3891534736        2.2356466562       -1.4336190273
 C         -5.3614155067        1.2163194106       -0.8398441333
 H         -6.2070162425        1.1345100617       -1.5261867781
 H         -4.8781039615        0.2370765982       -0.8092141288
 C         -5.8748701706        1.5705303906        0.5628727332
 H         -5.7106047007        2.6302486895        0.7615787885
 H         -6.9529125119        1.3988524073        0.5951061621
 C         -5.2591014140        0.7423463153        1.6924175776
 H         -5.3433041682       -0.3213537771        1.4546738894
 H         -5.8413375266        0.9198978376        2.6006669683
 C         -3.7925254311        1.0486746953        2.0219568265
 H         -3.5467442417        0.5315258448        2.9543445103
 H         -3.6686601279        2.1216361928        2.1827417689
 H         -4.0532811050        1.8618517198       -2.4034771987
 H         -4.9073743631        3.1826105137       -1.5950722352
 H         -3.4390622572        3.0712770839        0.3226157437
 H         -2.4294141974        3.0731968070       -1.1359918214
 O         -1.6150454285        0.7605339923       -1.0373765910
 C         -0.9684883449       -0.4578385399       -0.8723024272
 O         -0.1738874522       -0.7325940557       -1.7870155692
 O         -2.3553072086       -1.3492861562        2.3531267068
 C         -0.5607539288       -2.5321139591        0.5134875252
 C          0.9151813568       -2.3571740210        0.2630569481
 C          1.6276128169       -3.0497687705       -0.7055399644
 C          2.9715354814       -2.7857673455       -0.9090028296
 C          3.6323970232       -1.8346013408       -0.1538715310
 C          2.9287596775       -1.1409014613        0.8223641809
 C          1.5856006321       -1.4087641020        1.0268256479
 H          1.0364848022       -0.8583982611        1.7818255938
 N          3.5891111432       -0.1592256465        1.5943573849
 S          4.1945477785        1.1571852721        0.7521875742
 O          5.3122100035        0.7259082630       -0.0476879981
 O          4.4785041095        2.1543055198        1.7602609066
 C          2.8623335864        1.7069918857       -0.2966137952
 C          1.9214734664        2.5675616328        0.2327135097
 C          0.8658589856        2.9778083375       -0.5644469750
 C          0.7656404714        2.5148717924       -1.8671930696
 C          1.7109735012        1.6408729593       -2.3790873581
 C          2.7711273354        1.2300274394       -1.5880689958
 H          3.5266562913        0.5531565269       -1.9518573619
 H          1.6173463137        1.2680131222       -3.3856709653
 H         -0.0600566795        2.8264530964       -2.4872479477
 H          0.1233661012        3.6509668059       -0.1651398648
 H          2.0398925394        2.9128373799        1.2478192753
 H          3.0278307497        0.1755533731        2.3653269788
 H          4.6730561229       -1.6034011425       -0.3144434121
 H          3.5109680564       -3.3244625207       -1.6732974891
 H          1.1245274300       -3.7757534843       -1.3225683443
 H         -0.7025940444       -2.7191905953        1.5914036230
 C         -1.1671067004       -3.7228506710       -0.2121335261
 C         -2.6282023285       -3.7544570861       -0.5449200537
 C         -1.6122758911       -3.6571000215       -1.6411306848
 H         -1.4520621127       -4.5237993835       -2.2658556672
 H         -1.4973184071       -2.7183750095       -2.1589926223
 H         -3.1655106723       -4.6822361813       -0.4171584493
 H         -3.2122760124       -2.8764897327       -0.3094127765
 H         -0.7310001537       -4.6607156391        0.1185043055
