  62
        -98.93754486
 C         -1.8700353070       -1.3699247010       -0.5786696496
 C         -1.4592712953       -0.0803907747       -1.0034768025
 C         -2.4898795357        0.9710250369       -0.9919839261
 C         -3.7364034418        0.6828898554       -0.5837063447
 C         -4.8426601327        1.6822878086       -0.4174654262
 C         -4.8432675426        2.2653217534        1.0033061566
 C         -3.4716616400        2.7420854849        1.4845957105
 H         -3.6061669738        3.1542321771        2.4873774760
 H         -2.8017080042        1.8839086447        1.5816777081
 C         -2.8097017745        3.7958654807        0.5857626380
 H         -3.5600231457        4.2539579572       -0.0607160175
 H         -2.3984830873        4.5858030584        1.2179579276
 C         -1.6575475714        3.2686360997       -0.2719232517
 H         -1.1390385373        4.1281843009       -0.7066117145
 H         -0.9348159200        2.7395055172        0.3566966598
 C         -2.0678747221        2.3461342060       -1.4264499046
 H         -2.8543945177        2.8217733107       -2.0162003685
 H         -1.1922197780        2.2089766033       -2.0671033189
 H         -5.5487789060        3.0976453821        1.0346984035
 H         -5.1957166638        1.4946254959        1.6929286483
 H         -4.7214533116        2.4792958637       -1.1483708595
 H         -5.7945481136        1.1789889050       -0.5946332313
 O         -4.1098893691       -0.5671225553       -0.2116980916
 C         -3.1943608138       -1.6033869635       -0.1798268621
 O         -3.6815106662       -2.6831371903        0.2149417118
 O         -0.3027928732        0.2173295830       -1.3912489824
 C         -0.9546391522       -2.5748759195       -0.3893198243
 C         -0.0653065725       -2.3646205132        0.8167110803
 C         -0.3566934984       -3.0454489169        1.9952289763
 C          0.4209361282       -2.8714968191        3.1246931377
 C          1.4915240954       -1.9975057611        3.1028348095
 C          1.7866032251       -1.3018904196        1.9351042558
 C          1.0233621955       -1.5025210916        0.7920776303
 H          1.2535474312       -0.9560263196       -0.1072179194
 N          2.8707687322       -0.4113677593        1.9054401403
 S          2.6866229276        1.1374605719        1.2698463888
 O          3.5341297343        1.9651861802        2.1082873547
 O          1.2980752763        1.5187541396        1.2058286770
 C          3.4489382518        1.0193437139       -0.3334361878
 C          2.6948606884        1.0710110200       -1.4863122945
 C          3.3405509972        0.9595909249       -2.7093090978
 C          4.7164286016        0.8031945006       -2.7568444183
 C          5.4599868358        0.7581391328       -1.5864241198
 C          4.8224503415        0.8666955033       -0.3622679004
 H          5.3615519372        0.8481974575        0.5703233856
 H          6.5306920194        0.6378322087       -1.6262697759
 H          5.2118400413        0.7165474847       -3.7112198741
 H          2.7595248813        0.9911515850       -3.6174451028
 H          1.6243678446        1.1757136024       -1.4143943901
 H          3.3801806160       -0.3647406287        2.7766759534
 H          2.0950144166       -1.8463584486        3.9857362057
 H          0.1855234328       -3.4105109692        4.0300598779
 H         -1.2109523794       -3.7073315010        2.0205681966
 H         -1.6561444191       -3.3808642392       -0.1216355007
 C         -0.1766453754       -3.1242679360       -1.5776489908
 C         -0.7259859099       -3.0721022450       -2.9716821354
 C          0.5366392769       -2.3390244945       -2.6333475212
 H          1.4723759159       -2.7361126163       -2.9999647364
 H          0.5014156810       -1.2646853034       -2.5820999936
 H         -0.6721218295       -3.9588473773       -3.5857026611
 H         -1.6210439542       -2.4858606148       -3.1255490535
 H          0.3013358929       -4.0597540277       -1.2960942981
