  62
        -98.94869805
 C          1.4016910518        1.0442761975        0.9209682540
 C          2.4410286055        0.5182776205        0.1173318747
 C          2.8142508723       -0.8755403428        0.3886296583
 C          2.1253127607       -1.5899704134        1.2956675675
 C          2.3613298253       -3.0319580686        1.6544960360
 C          1.7089892907       -4.0216950115        0.6789790059
 C          2.4165073864       -4.1690415302       -0.6688524379
 H          3.4826853328       -4.3339407190       -0.5067071789
 H          2.0147690653       -5.0668989503       -1.1431902699
 C          2.2116449063       -2.9821220107       -1.6206217110
 H          1.9851821306       -3.3570935654       -2.6222436657
 H          1.3423286606       -2.4023723093       -1.3009871988
 C          3.4175628021       -2.0516771857       -1.7509033440
 H          4.2417129832       -2.5853315291       -2.2314206587
 H          3.1333199201       -1.2161452409       -2.3957953240
 C          3.9231085980       -1.4738136206       -0.4239206962
 H          4.4375063629       -2.2452778899        0.1492937945
 H          4.6329999834       -0.6742752458       -0.6519926514
 H          0.6748397029       -3.7135748615        0.5034779880
 H          1.6908078500       -4.9994947053        1.1667633510
 H          3.4325408802       -3.2283377071        1.7127312668
 H          1.9258972900       -3.1831250097        2.6447843893
 O          1.1091253498       -1.0591287047        2.0252425774
 C          0.7170962250        0.2573643502        1.8475835096
 O         -0.2378046130        0.6093310265        2.5708972976
 H         -1.1133774285        0.8565806491        0.0253462741
 C         -0.8302636477        1.4655751233       -0.8206047516
 C          0.1736796916        2.4140961779       -0.6639965459
 C          0.5137047173        3.2080807685       -1.7496481966
 C         -0.1146278513        3.0205078847       -2.9702308083
 C         -1.0668204936        2.0318758074       -3.1378763131
 C         -1.4248255044        1.2427988516       -2.0492903949
 N         -2.3839331369        0.2257259186       -2.1609520911
 S         -2.2321438104       -1.1557127149       -1.2245796009
 O         -0.8518894236       -1.5077182365       -0.9881060325
 O         -3.0198263755       -2.1480821040       -1.9293070972
 C         -3.0608097761       -0.7585008564        0.2983141468
 C         -2.5697894428       -1.2638903452        1.4845398240
 C         -3.2441778756       -0.9858462828        2.6626262314
 C         -4.3941015297       -0.2135672311        2.6322607851
 C         -4.8785846002        0.2821828709        1.4309922949
 C         -4.2095537523        0.0066736295        0.2499702106
 H         -4.5529326767        0.3774993664       -0.7014246762
 H         -5.7726459086        0.8845578119        1.4127669930
 H         -4.9131841325        0.0051805889        3.5521635255
 H         -2.8583092700       -1.3632696089        3.5957514888
 H         -1.6597136363       -1.8434808448        1.4726234771
 H         -2.6916315680        0.0201798879       -3.1000523688
 H         -1.5259698423        1.8648377754       -4.1002954158
 H          0.1609435345        3.6384646936       -3.8114564736
 H          1.2813043668        3.9573815112       -1.6480743864
 C          0.8662341315        2.4480766786        0.6777024428
 H          0.1046546847        2.6208589748        1.4515534212
 C          1.9422697844        3.5023980419        0.8002382992
 C          1.5597760095        4.9223748476        1.0884797480
 C          2.2274336096        4.0966869137        2.1456170682
 H          3.2523245838        4.3167778124        2.4038870391
 H          1.6321944766        3.7517906464        2.9786699007
 H          2.1271266464        5.7140111795        0.6232016052
 H          0.5094842462        5.1421509676        1.2061641749
 H          2.7864288848        3.3207099876        0.1465128741
 O          3.0392757254        1.1717827162       -0.7775628830
