  62
        -98.93661651
 C          1.1719294526        1.3199368820        0.2763578800
 C          1.9649816451        0.6330818161        1.2268623702
 C          2.7703177258       -0.5049067643        0.7431183946
 C          2.6713754433       -0.8587855054       -0.5514080894
 C          3.4371636360       -1.9251125766       -1.2889415774
 C          4.8883369114       -1.5134079064       -1.5867318775
 C          5.6244158525       -0.8536115686       -0.4238338420
 H          5.0764541344        0.0368230222       -0.1102826531
 H          6.5976243220       -0.5199905063       -0.7936533695
 C          5.8675894258       -1.7520704377        0.7864864100
 H          6.4803092621       -1.1857438723        1.4927769608
 H          6.4445579015       -2.6255655189        0.4746922579
 C          4.6156545899       -2.2325578479        1.5237361046
 H          4.9407136143       -2.6387652548        2.4860708978
 H          4.1350812001       -3.0489299389        0.9916076105
 C          3.6013052588       -1.1363373056        1.8339747020
 H          4.1101958700       -0.3115683601        2.3461513535
 H          2.8806486413       -1.5248864886        2.5639503206
 H          4.8745188989       -0.8023779111       -2.4164545616
 H          5.4376663684       -2.3987122165       -1.9115634623
 H          3.4077310809       -2.8596697706       -0.7366108799
 H          2.9244592201       -2.0788951026       -2.2408932470
 O          1.8351045819       -0.2178036702       -1.4136041926
 C          1.0568878440        0.8641358596       -1.0379945703
 O          0.3329446779        1.3029626153       -1.9485594955
 H         -1.2927158670        0.7033970805        1.7685797175
 C         -1.7917135150        1.3016362993        1.0155112402
 C         -1.0841514252        2.3180674525        0.3844183249
 C         -1.7293482700        3.0711117208       -0.5867423474
 C         -3.0462256124        2.8036893167       -0.9198266525
 C         -3.7487803141        1.7940402054       -0.2872795832
 C         -3.1127476349        1.0389807341        0.6895913157
 N         -3.8249250967        0.0065308301        1.3425579328
 S         -4.2404927496       -1.3154796470        0.4032102245
 O         -5.1107851357       -0.8790376405       -0.6572254137
 O         -4.7855419195       -2.2877072081        1.3232184656
 C         -2.6985318547       -1.9121214891       -0.2646816306
 C         -2.0277761775       -2.9144299995        0.4078852267
 C         -0.8074066513       -3.3490310513       -0.0822448372
 C         -0.2800592056       -2.7714016985       -1.2270531105
 C         -0.9607629867       -1.7592762453       -1.8854538125
 C         -2.1814616638       -1.3196748805       -1.3990469755
 H         -2.7327015014       -0.5314839270       -1.8857107275
 H         -0.5385384927       -1.2925861060       -2.7610337744
 H          0.6699348090       -3.1097191548       -1.6092278719
 H         -0.2710569987       -4.1333273500        0.4275870234
 H         -2.4796760937       -3.3419355949        1.2887885825
 H         -3.3604452925       -0.3235968555        2.1775868235
 H         -4.7693320649        1.5640265440       -0.5469715940
 H         -3.5324176791        3.3893414218       -1.6853240141
 H         -1.1905327482        3.8489451106       -1.1022184098
 C          0.3610151103        2.5079243008        0.7639134198
 H          0.4323311224        2.4496347074        1.8627319410
 C          0.9172060779        3.8674249246        0.3706518119
 C          2.3968218491        4.0843240125        0.2679545035
 C          1.5432964004        4.1461095059       -0.9613649542
 H          1.3686514828        5.1121745809       -1.4124399612
 H          1.5999273038        3.3380793613       -1.6727842656
 H          3.0351655872        3.2230005031        0.4026315191
 H          2.8129895011        5.0016320837        0.6564441566
 H          0.3425757674        4.6758277923        0.8129833440
 O          2.0093488619        0.9587648077        2.4449016608
