  62
        -98.94143840
 C          2.5059816646        0.9704903306       -0.5019160720
 C          3.3881333435        0.3270510624        0.4069686115
 C          3.7634283602       -1.0532831428        0.0886583424
 C          3.2864619701       -1.6300121048       -1.0288409150
 C          3.5786868241       -3.0279234563       -1.5013128886
 C          2.6843926490       -4.0965815369       -0.8575750998
 C          2.9977248484       -4.4093600561        0.6061833459
 H          2.4559297773       -5.3222326809        0.8611514087
 H          4.0623046664       -4.6204869393        0.7122989970
 C          2.5894157653       -3.3051806786        1.5917540943
 H          1.8736188582       -2.6319452418        1.1119410903
 H          2.0749528745       -3.7516177787        2.4460592664
 C          3.7548674344       -2.4839040321        2.1444681414
 H          4.3998343465       -3.1260734542        2.7483087250
 H          3.3449961310       -1.7079520881        2.7962008086
 C          4.6129233589       -1.7991611703        1.0726322992
 H          5.2637256383       -1.0739026136        1.5669607272
 H          5.2319341616       -2.5346857142        0.5595899677
 H          2.8042873764       -5.0149407403       -1.4370471000
 H          1.6416463658       -3.7806023562       -0.9459197404
 H          4.6261024252       -3.2674956142       -1.3162396383
 H          3.4034432465       -3.0354168244       -2.5792174703
 O          2.4684786725       -0.9741538365       -1.8907929877
 C          2.0283856922        0.3174376649       -1.6380801591
 O          1.2385831221        0.7430878848       -2.5068033892
 O          3.8450333723        0.8889056446        1.4378858608
 C          2.0710813302        2.3803432922       -0.1332471802
 C          0.7427584155        2.3306599789        0.5844173428
 C          0.6191264816        2.7493974353        1.9036780347
 C         -0.5906841997        2.6422745776        2.5684472949
 C         -1.6983525833        2.1066715341        1.9357528697
 C         -1.5818460924        1.6831781595        0.6192204461
 C         -0.3758154687        1.8100742222       -0.0511981052
 H         -0.2942663765        1.4668537904       -1.0724428124
 N         -2.7023138500        1.0952186572       -0.0246210223
 S         -3.0015916108       -0.4952502697        0.4764580938
 O         -2.9910700332       -0.5312625952        1.9163698955
 O         -2.0971059223       -1.4077399737       -0.1944118563
 C         -4.6620929357       -0.7301894171       -0.1251918188
 C         -4.8656337088       -1.3640859724       -1.3351954075
 C         -6.1610477970       -1.5072380642       -1.8073874041
 C         -7.2239384119       -1.0129905079       -1.0667579434
 C         -7.0030528205       -0.3775077479        0.1461737459
 C         -5.7105717190       -0.2319698831        0.6236602977
 H         -5.4908473285        0.2471654928        1.5631137220
 H         -7.8322737016        0.0040610149        0.7197014644
 H         -8.2306993383       -1.1259986970       -1.4368095244
 H         -6.3349056117       -2.0026251363       -2.7491310316
 H         -4.0099705607       -1.7400787255       -1.8733793071
 H         -2.5541135240        1.0594570180       -1.0264446154
 H         -2.6373004249        1.9894227743        2.4505437556
 H         -0.6687520740        2.9700042227        3.5939549592
 H          1.4868657708        3.1389968335        2.4159402140
 H          2.8245387155        2.7352877153        0.5828583119
 C          2.0310236723        3.3418884120       -1.3034411127
 C          2.1281399789        4.8128437345       -1.0355991468
 C          3.2731418432        4.0906527997       -1.6784265342
 H          3.4727266644        4.2618292560       -2.7254676391
 H          4.1605709791        3.9124138134       -1.0887849853
 H          1.5395190298        5.4853668202       -1.6401598685
 H          2.2405458920        5.1271720531       -0.0091069895
 H          1.3863178906        3.0160546224       -2.1089543671
