  62
        -98.94304031
 C         -1.8381185497       -1.1321045157        0.2550880997
 C         -2.1329981901       -0.5715389943       -1.0124532013
 C         -2.6780518925        0.7926476266       -0.9864957054
 C         -2.9440811787        1.3892602549        0.1892593354
 C         -3.4854484347        2.7810573826        0.3694314898
 C         -2.3955087827        3.8616582699        0.3649992795
 C         -1.7584495005        4.1433268476       -0.9966141385
 H         -2.5408062110        4.3495830481       -1.7277027944
 H         -1.1645617133        5.0532538424       -0.8910158271
 C         -0.8489477377        3.0218026287       -1.5202482171
 H         -0.5766843585        2.3582475418       -0.6944068461
 H          0.0806497537        3.4537303579       -1.9000176060
 C         -1.4600979659        2.1930859372       -2.6519419159
 H         -0.7501978522        1.4082183253       -2.9296470360
 H         -1.6136517154        2.8278830392       -3.5273103357
 C         -2.7918758952        1.5186139371       -2.2925368350
 H         -3.5922650888        2.2566422764       -2.2578514547
 H         -3.0241337349        0.7834612387       -3.0668166642
 H         -1.6193507186        3.5682448892        1.0742604362
 H         -2.8493318885        4.7871061323        0.7262990141
 H         -3.9851645992        2.8004556813        1.3401125397
 H         -4.2217024810        2.9956422686       -0.4050726776
 O         -2.7468386727        0.7723549195        1.3838392450
 C         -2.1449545176       -0.4752292485        1.4473067513
 O         -1.9462723623       -0.8914867226        2.6054121797
 O         -1.9251426171       -1.1540350226       -2.1083528530
 C         -1.1236228047       -2.4607564351        0.3661284406
 C          0.2807874863       -2.4093283039       -0.1965006655
 C          1.0545999476       -3.5652497241       -0.2596986469
 C          2.3582514774       -3.5252029051       -0.7206304545
 C          2.9230523321       -2.3334876541       -1.1426224080
 C          2.1560685825       -1.1803676243       -1.0999285574
 C          0.8557805475       -1.2195355034       -0.6163300459
 H          0.2861591347       -0.3005631932       -0.5744803627
 N          2.7316763666        0.0490083795       -1.5130895692
 S          3.6573299151        0.7879944488       -0.3268662413
 O          4.1236423237        2.0323934048       -0.8926648838
 O          4.6657188428       -0.1458967700        0.1015259081
 C          2.5085920220        1.1161177184        0.9972601231
 C          1.9214351594        2.3626890573        1.0783886327
 C          0.9614156365        2.5886877052        2.0517637674
 C          0.5847845092        1.5603141169        2.9019601891
 C          1.1801535779        0.3121275386        2.8042253039
 C          2.1565372041        0.0854524614        1.8471813179
 H          2.6499410056       -0.8684195595        1.7509438303
 H          0.8665501326       -0.4858180734        3.4579118301
 H         -0.1841819210        1.7212851100        3.6413863175
 H          0.5086516892        3.5637084841        2.1412187288
 H          2.2333270083        3.1310316207        0.3889786068
 H          2.0416520453        0.7132437965       -1.8378118366
 H          3.9407800493       -2.2771582545       -1.4918238305
 H          2.9428663142       -4.4316865256       -0.7525995056
 H          0.6283864540       -4.5022976834        0.0616526849
 H         -1.0413763969       -2.6704509945        1.4430499876
 C         -1.9321054581       -3.5738061948       -0.2790458598
 C         -2.0237845647       -4.9250075884        0.3616629825
 C         -3.2094774613       -4.0093934649        0.3723003677
 H         -4.0560918395       -4.2431523834       -0.2553201595
 H         -3.4760289884       -3.5314796567        1.3042681981
 H         -2.0538917533       -5.7954987629       -0.2760627983
 H         -1.5071038088       -5.0783564233        1.2974607617
 H         -1.9201822223       -3.5228227256       -1.3612030321
