  62
        -98.94024946
 C          0.4184501769       -2.0738168465        0.4968795850
 C          0.8700400033       -0.8489700325        1.0474613515
 C          2.2887338242       -0.5217842613        0.8218158343
 C          3.0502309290       -1.3459366407        0.0818300783
 C          4.4649962745       -1.0807071119       -0.3476174287
 C          4.4693462821       -0.0642411979       -1.5076859926
 C          5.1377527749        1.2686331300       -1.1724833445
 H          6.2215220363        1.1328642265       -1.1667911892
 H          4.8951452267        1.9659917564       -1.9774175737
 C          4.7341266287        1.8926527175        0.1661091930
 H          5.2776005348        1.4053866769        0.9772428858
 H          5.0697953653        2.9317974279        0.1452116241
 C          3.2358565482        1.8681040145        0.4970920449
 H          2.6341478835        1.8144888981       -0.4126726781
 H          2.9914392934        2.8125081333        0.9896865407
 C          2.8060295750        0.7406115019        1.4548451002
 H          3.6345511165        0.4979163882        2.1264218230
 H          1.9755071664        1.1046251160        2.0669115372
 H          4.9782704879       -0.4966109078       -2.3708153056
 H          3.4346860202        0.1158766919       -1.8110573396
 H          5.0441187266       -0.7061779588        0.4934400136
 H          4.8916287538       -2.0301511831       -0.6718462120
 O          2.5788142471       -2.5038312068       -0.4487553619
 C          1.2654611027       -2.8918624358       -0.2557805762
 O          0.9728342733       -3.9803414066       -0.7928197855
 O          0.1485670224       -0.0502055152        1.7020647643
 C         -1.0179731881       -2.5696274056        0.5933140408
 C         -1.8255812589       -1.9715568862       -0.5337042028
 C         -2.5122124768       -2.7689687957       -1.4409691521
 C         -3.2011928840       -2.1957281354       -2.4956644200
 C         -3.1994412207       -0.8242607802       -2.6770669839
 C         -2.5165916452       -0.0194828176       -1.7716940489
 C         -1.8602670629       -0.5944148136       -0.6951117895
 H         -1.3331192802        0.0346940570        0.0022129782
 N         -2.4896222942        1.3747942789       -1.9111005138
 S         -1.1413898358        2.2372005299       -1.4161204142
 O         -1.2452737864        3.4961834783       -2.1292995550
 O          0.0824217801        1.5022167339       -1.6452890706
 C         -1.3997879778        2.5584635715        0.3153681478
 C         -0.3196976199        3.0029148582        1.0488519308
 C         -0.4931846922        3.2989834305        2.3905585415
 C         -1.7413763013        3.1494366888        2.9727040171
 C         -2.8183098425        2.7090086046        2.2200687428
 C         -2.6515499394        2.4121514549        0.8767900392
 H         -3.4684685395        2.0557551186        0.2713154802
 H         -3.7879715076        2.5887545843        2.6763082477
 H         -1.8735226351        3.3719640731        4.0200063603
 H          0.3467853729        3.6360405649        2.9771992111
 H          0.6360673536        3.0926519638        0.5591449764
 H         -2.8869719853        1.7392321569       -2.7640983414
 H         -3.7147958497       -0.3788795003       -3.5144016133
 H         -3.7297749281       -2.8245221455       -3.1960870485
 H         -2.4843499078       -3.8428927645       -1.3296867226
 H         -0.9720541855       -3.6557622568        0.4337093816
 C         -1.6779519001       -2.3074060658        1.9321269959
 C         -2.8395931287       -3.1578168149        2.3465082780
 C         -1.5178024206       -3.3054929616        3.0374600192
 H         -1.4161277571       -2.9404402415        4.0481599320
 H         -0.9301708858       -4.1887271051        2.8319311834
 H         -3.6509193019       -2.6920518665        2.8840062083
 H         -3.1500048004       -3.9448029794        1.6759136128
 H         -1.6935394065       -1.2609381074        2.2050505800
