  62
        -98.94162365
 C         -0.7335595396       -1.3793365191        0.4621358803
 C         -1.2422063789       -0.8110731991       -0.7326279200
 C         -2.3607340289        0.1307054810       -0.5556892306
 C         -2.7752658395        0.4683279310        0.6770495892
 C         -3.9228220397        1.3828482011        1.0112127486
 C         -5.2893127097        0.6833687512        0.9932769078
 C         -5.8286746990        0.3495893712       -0.3984799924
 H         -6.8780581091        0.0734365713       -0.2775404530
 H         -5.7976918686        1.2425863912       -1.0235927224
 C         -5.0972670487       -0.7998987088       -1.1059872320
 H         -4.5266511491       -1.3754331089       -0.3733440017
 H         -5.8297434985       -1.4803568388       -1.5463014024
 C         -4.1572490081       -0.3611166389       -2.2296002315
 H         -3.6709059279       -1.2515846590       -2.6364440113
 H         -4.7355497076        0.1014499411       -3.0326904819
 C         -3.0591983782        0.6167328410       -1.7895959910
 H         -3.4830472582        1.6073040210       -1.6256932012
 H         -2.3159358378        0.6816358909       -2.5887750406
 H         -5.2234846701       -0.2306597488        1.5877321479
 H         -6.0034140199        1.3484516212        1.4842443375
 H         -3.9445164692        2.2260656211        0.3209314085
 H         -3.7406381202        1.7571677811        2.0201933587
 O         -2.1721698402       -0.0016779890        1.8006809895
 C         -1.1711169302       -0.9535871091        1.7195633101
 O         -0.7524255908       -1.3493586691        2.8256236503
 O         -0.8249526483       -1.0740390592       -1.8882427698
 C          0.3162988303       -2.4782314992        0.4944548009
 C          1.7024969003       -1.9132961093        0.6607832316
 C          2.5806478798       -2.4662884694        1.5860669121
 C          3.8567416997       -1.9555759295        1.7387151228
 C          4.2724663302       -0.8743068695        0.9840365830
 C          3.3985576707       -0.3086409494        0.0610335025
 C          2.1240731108       -0.8336803894       -0.1032472282
 H          1.4615992812       -0.4015760493       -0.8384176885
 N          3.7990044712        0.7954091905       -0.7010594473
 S          2.7008081916        1.9065559306       -1.2746260379
 O          2.0515985022        1.4095515306       -2.4600313282
 O          3.4884547418        3.1092828405       -1.4578774875
 C          1.4994647409        2.1976556307        0.0136793915
 C          0.2261104112        2.5578209608       -0.3759958392
 C         -0.7079284493        2.8847094909        0.5930661603
 C         -0.3622862700        2.8229733208        1.9332506405
 C          0.9177030297        2.4497798408        2.3102617311
 C          1.8643557602        2.1484949907        1.3443074117
 H          2.8680525200        1.8715620506        1.6223435722
 H          1.1821820092        2.3941162607        3.3539360613
 H         -1.0941205504        3.0641868709        2.6878239001
 H         -1.6992364891        3.1862248009        0.2980246597
 H         -0.0114693983        2.5668854108       -1.4279874494
 H          4.6728566211        1.2214091505       -0.4306172168
 H          5.2638414802       -0.4655287596        1.1050897635
 H          4.5304019393       -2.3953024495        2.4579694931
 H          2.2503408694       -3.2934298793        2.1965952119
 H          0.0957207898       -3.0592859492        1.4053708407
 C          0.2153911609       -3.4404013092       -0.6813402192
 C          1.1797472815       -3.4532640093       -1.8247274387
 C          1.1991426609       -4.5645731293       -0.8211230487
 H          0.8339102410       -5.5362881193       -1.1172734988
 H          2.0253824605       -4.5938293593       -0.1270928382
 H          0.7822494520       -3.6421707593       -2.8103308089
 H          1.9881911116       -2.7386410394       -1.8198063882
 H         -0.8173606390       -3.6672159991       -0.9265367997
