  62
        -98.93909076
 C         -2.1860913181       -0.3770209914        0.6232136877
 C         -2.9903617636       -0.4640960646       -0.5396738125
 C         -3.7980640836        0.7254185128       -0.8433242470
 C         -3.6943110448        1.8235194263       -0.0739911333
 C         -4.4405035224        3.1156666191       -0.2670290783
 C         -5.8499590097        3.1173060245        0.3410470897
 C         -6.8846070722        2.2784284490       -0.4102476282
 H         -7.8644817521        2.5440226421       -0.0084668074
 H         -6.8794098968        2.5559246209       -1.4647528643
 C         -6.6908978281        0.7616815684       -0.2742543700
 H         -6.0346243965        0.5524280780        0.5736415805
 H         -7.6521647613        0.2898135367       -0.0585097779
 C         -6.1218975644        0.0809844024       -1.5192904408
 H         -6.8340096436        0.1683874899       -2.3428709476
 H         -5.9907151394       -0.9814895956       -1.2991313880
 C         -4.7695102118        0.6391830387       -1.9816224661
 H         -4.3504532134       -0.0448841323       -2.7236550075
 H         -4.9038961802        1.6168721862       -2.4437367025
 H         -5.7843263903        2.7733587075        1.3758546362
 H         -6.1964015897        4.1532344724        0.3566893723
 H         -3.8516475515        3.8917180876        0.2265555748
 H         -4.5012131498        3.3490081160       -1.3303573576
 O         -2.8524908443        1.8914381976        0.9922801719
 C         -2.0943120996        0.7975642032        1.3718388753
 O         -1.3789344934        0.9950811919        2.3764081660
 O         -3.0444704626       -1.4736253365       -1.2876476332
 C         -1.3336037033       -1.5506813069        1.0796259715
 C         -0.1811116142       -1.7149580445        0.1177263078
 C         -0.1060610168       -2.7305526603       -0.8250995089
 C          0.9715857929       -2.7984030730       -1.6921188551
 C          1.9916830352       -1.8672525126       -1.6342262646
 C          1.9289335058       -0.8499444030       -0.6895223237
 C          0.8484134863       -0.7825650622        0.1770023862
 H          0.7900728585        0.0117841196        0.9111935825
 N          2.9617511255        0.1074635726       -0.6258449391
 S          4.5387198648       -0.5062391069       -0.6285727721
 O          4.9184115996       -0.7754640800       -1.9927976215
 O          4.6357273964       -1.6233363075        0.2844927920
 C          5.4669380795        0.8830308290       -0.0100833276
 C          5.8430550873        1.8794103411       -0.8906886214
 C          6.5537769304        2.9662933287       -0.4071032644
 C          6.8743985674        3.0384377755        0.9404471604
 C          6.4908888326        2.0299897701        1.8117103449
 C          5.7786270190        0.9407465921        1.3350231174
 H          5.4691386193        0.1292477285        1.9742437428
 H          6.7444819470        2.0869485660        2.8580653209
 H          7.4298574751        3.8841399495        1.3139724718
 H          6.8565113143        3.7511553020       -1.0812855810
 H          5.5812050881        1.7754200860       -1.9306498835
 H          2.8297351870        0.7462848273        0.1471578583
 H          2.8393716166       -1.9181882704       -2.2983831800
 H          1.0182065944       -3.5904609164       -2.4244519811
 H         -0.8960631544       -3.4598353189       -0.8908298535
 H         -0.9142272441       -1.2548226643        2.0514271774
 C         -2.1587458181       -2.8046831212        1.2717246069
 C         -1.5970987506       -3.9340453935        2.0802458038
 C         -2.7206869400       -3.1068321585        2.6269779141
 H         -3.7037894434       -3.5486921810        2.6900703330
 H         -2.5030134835       -2.4119534844        3.4252755456
 H         -1.8072926225       -4.9460997197        1.7699396247
 H         -0.6137665716       -3.8005428963        2.5058348881
 H         -2.7739606846       -3.0482981435        0.4149258152
