  62
        -98.94313076
 C          1.8276489587        0.8522469273        0.6994195755
 C          2.8103135278        1.2017862220       -0.2592124519
 C          4.1407920140        0.6049849300       -0.0611316506
 C          4.3565314289       -0.2070883870        0.9884819288
 C          5.6435194052       -0.9257586412        1.2699626973
 C          5.6574533041       -2.3158157444        0.6187002726
 C          5.2485751539       -2.3127572870       -0.8544614793
 H          5.3265853798       -3.3408323323       -1.2149946986
 H          4.1972483377       -2.0252323116       -0.9318549914
 C          6.0932882241       -1.3922450663       -1.7465066844
 H          7.0295497096       -1.1470714676       -1.2437948515
 H          6.3481986936       -1.9305272680       -2.6618183615
 C          5.3914281747       -0.1005602965       -2.1696663982
 H          5.9831699422        0.3629164601       -2.9634725255
 H          4.4099619422       -0.3374698294       -2.5880338489
 C          5.2041770275        0.9483087028       -1.0663984304
 H          6.1581785356        1.1348885515       -0.5694910681
 H          4.8766077285        1.8764975094       -1.5433453638
 H          4.9643714913       -2.9605630757        1.1644541031
 H          6.6607439485       -2.7339392617        0.7191786353
 H          6.4751070204       -0.3304209533        0.8979899259
 H          5.7444696718       -1.0397097421        2.3506549117
 O          3.3952567040       -0.5045293051        1.9002426480
 C          2.1151528853        0.0058884466        1.7743974570
 O          1.3334413311       -0.3527807842        2.6791351073
 H         -1.2848492213       -0.7107557290        0.9870665572
 C         -1.1877829670       -0.4517399314       -0.0572046051
 C         -0.3590256083        0.5953790517       -0.4381689624
 C         -0.2267375126        0.8844205896       -1.7926471418
 C         -0.9068157190        0.1370829329       -2.7365290355
 C         -1.7449229910       -0.8948129856       -2.3523600318
 C         -1.8825071542       -1.1937745989       -1.0023987884
 N         -2.7256871811       -2.2383996297       -0.5806837532
 S         -3.8458269054       -1.9262974568        0.6232999315
 O         -3.1900740606       -1.7948418565        1.8984973055
 O         -4.8126233635       -2.9960404364        0.5071698127
 C         -4.5862663025       -0.3787450969        0.1363207580
 C         -5.5546868486       -0.4005109979       -0.8486312861
 C         -6.0877081669        0.7984650294       -1.2923811938
 C         -5.6383436752        1.9939682667       -0.7523870369
 C         -4.6674710278        1.9991315227        0.2369276684
 C         -4.1327527323        0.8022878505        0.6875061699
 H         -3.3798596203        0.7624237415        1.4583565074
 H         -4.3219724860        2.9303974392        0.6569699183
 H         -6.0483927031        2.9284309898       -1.1012707039
 H         -6.8472013958        0.7979195942       -2.0574453684
 H         -5.8827661338       -1.3523860154       -1.2338085152
 H         -3.1618847998       -2.7423113486       -1.3399338891
 H         -2.2798967558       -1.4736034296       -3.0900883709
 H         -0.7885475317        0.3654072044       -3.7848158602
 H          0.4394026148        1.6738357531       -2.1008212035
 C          0.3945112528        1.3595706471        0.6246389398
 H         -0.0548339208        1.1071006220        1.5948555014
 C          0.3093198666        2.8604376980        0.4335577520
 C         -0.9621286514        3.5634805834        0.7973744369
 C          0.2631350127        3.7457046563        1.6408446393
 H          0.7814413145        4.6921719216        1.6051488090
 H          0.2918698262        3.2703654279        2.6111489601
 H         -1.2907973709        4.3867391775        0.1823994611
 H         -1.7628268731        2.9608016088        1.1985662469
 H          0.8634760984        3.2228439812       -0.4213170617
 O          2.6123023126        1.9729564246       -1.2334432691
