  62
        -98.93372683
 C         -2.3836229295       -1.2581857292        0.0882080907
 C         -3.3565442294       -0.7305439286        0.9763820704
 C         -4.4376660294        0.0734306911        0.3850357100
 C         -4.4576579495        0.2670142503       -0.9443444501
 C         -5.4778210695        1.0052177298       -1.7745475205
 C         -6.0107863895        2.3353057202       -1.2256393412
 C         -4.9941528394        3.1586909906       -0.4213808617
 H         -3.9927677894        2.7426759805       -0.5461520815
 H         -4.9741553094        4.1775947104       -0.8126215323
 C         -5.3327052793        3.2344872015        1.0694035582
 H         -4.8198492993        4.0967183317        1.5022134577
 H         -6.4061465693        3.4051022216        1.1762209282
 C         -4.9360539393        2.0111527719        1.8949557089
 H         -5.3299238993        2.1452521925        2.9051553989
 H         -3.8471952693        1.9581915920        1.9804767889
 C         -5.4263180894        0.6590585716        1.3517254097
 H         -5.4776962794       -0.0410309779        2.1898953801
 H         -6.4163798294        0.7464917414        0.9110441197
 H         -6.3517398195        2.9156628297       -2.0847171315
 H         -6.8867735894        2.1491264306       -0.6060333511
 H         -4.9903818496        1.1752290893       -2.7377414706
 H         -6.3193326595        0.3300253298       -1.9557450600
 O         -3.4999191295       -0.2509177902       -1.7631113298
 C         -2.4429219095       -1.0129419700       -1.2828079495
 O         -1.6579236996       -1.3866395605       -2.1760677093
 H          0.0752552605       -0.4915366499       -0.9737564599
 C          0.5289188405       -0.5241887193        0.0066647001
 C         -0.0500044595       -1.3039318387        0.9988278106
 C          0.5562175206       -1.3451021880        2.2487068606
 C          1.7129002706       -0.6258757579        2.4956845501
 C          2.2907820306        0.1419645215        1.5004327597
 C          1.6921031006        0.1895879108        0.2484583497
 N          2.2975998805        0.9516200702       -0.7791276108
 S          3.7224486005        0.2672076998       -1.3727114305
 O          3.9082016504        0.8320100591       -2.6910580008
 O          3.6794757204       -1.1753960601       -1.2893645296
 C          4.9756008506        0.9002111704       -0.2785172809
 C          5.2440696706        2.2548697604       -0.3075691317
 C          6.2088483106        2.7637208808        0.5471857380
 C          6.8853919507        1.9140220213        1.4100063884
 C          6.6070021506        0.5556847813        1.4236940692
 C          5.6425311406        0.0401393209        0.5718000196
 H          5.3885039805       -1.0073988591        0.5492510602
 H          7.1346114206       -0.1031763083        2.0944028996
 H          7.6349426407        2.3128887317        2.0751478982
 H          6.4293407207        3.8189775708        0.5383874174
 H          4.6993883006        2.8766079600       -0.9984052320
 H          1.6723250705        1.1041297898       -1.5595791409
 H          3.1904989106        0.7058544416        1.6849696393
 H          2.1703203107       -0.6647644274        3.4722498701
 H          0.1086176506       -1.9403838275        3.0310974210
 C         -1.2900551395       -2.1091532088        0.7092031511
 H         -1.7076667795       -2.4307491283        1.6765498013
 C         -0.9913656296       -3.3686045393       -0.0946181082
 C          0.2818138304       -3.6045480298       -0.8458840581
 C          0.0055898204       -4.3682745691        0.4126005324
 H         -0.2310114796       -5.4190293191        0.3419183130
 H          0.5755296405       -4.0992537386        1.2890919322
 H          0.2112227703       -4.1170590703       -1.7937034578
 H          1.0506481504       -2.8465816798       -0.8299839286
 H         -1.8898961096       -3.7717451996       -0.5521287079
 O         -3.3313010494       -0.9412089979        2.2177180905
