  62
        -98.94847508
 C         -0.8399741285       -1.2240912589        0.5648928054
 C         -1.2079134520       -0.5307480522       -0.6129552884
 C         -2.1458981126        0.5830017110       -0.4219553016
 C         -2.4768587102        0.9699774359        0.8227154640
 C         -3.4153920497        2.0901583206        1.1812361163
 C         -4.8918438821        1.6700385390        1.2018573061
 C         -5.5142671795        1.4300977089       -0.1744146015
 H         -6.5936090394        1.3551762835       -0.0279639645
 H         -5.3316383766        2.2968473813       -0.8101584531
 C         -5.0229653042        0.1582845759       -0.8801518719
 H         -4.5477044810       -0.5023542505       -0.1512018569
 H         -5.8788832876       -0.3829170591       -1.2897844841
 C         -4.0499546541        0.4059356461       -2.0334460913
 H         -3.7447161801       -0.5636016769       -2.4347240750
 H         -4.5591093594        0.9543887410       -2.8288242226
 C         -2.7825076835        1.1782605646       -1.6408187565
 H         -2.0638467914        1.0991016072       -2.4591103169
 H         -3.0213147640        2.2278845980       -1.4767550954
 H         -4.9901263346        0.7677966416        1.8101788898
 H         -5.4519458336        2.4664632887        1.6974364597
 H         -3.1365889027        2.4243912822        2.1830046722
 H         -3.2879771280        2.9204327343        0.4866545191
 O         -1.9717874769        0.3711948644        1.9362333646
 C         -1.2017100408       -0.7768518875        1.8346533327
 O         -0.8992508476       -1.2933865245        2.9309425123
 O         -0.7981011915       -0.8367052157       -1.7613319982
 C         -0.0275508348       -2.5019512534        0.4665505973
 C          1.3038880196       -2.2393763632       -0.1916234638
 C          1.8144556546       -3.0149580601       -1.2244787992
 C          3.0567442419       -2.7305260484       -1.7641653841
 C          3.8127311565       -1.6762261281       -1.2870666666
 C          3.3141544254       -0.9005088929       -0.2456648959
 C          2.0690155135       -1.1845132007        0.2910019464
 H          1.6925095264       -0.5843020848        1.1074254125
 N          4.0687322327        0.1589231579        0.2782291523
 S          3.3340537939        1.4994385154        0.9315659365
 O          4.3730652078        2.5092670287        0.9202195811
 O          2.7795491981        1.1968957937        2.2279066724
 C          2.0431555422        2.0003746398       -0.1929744824
 C          2.2523735130        1.9279816332       -1.5555234719
 C          1.2805985688        2.4219611012       -2.4099673515
 C          0.1312922026        2.9964360593       -1.8918904670
 C         -0.0651522176        3.0600275395       -0.5219479669
 C          0.8952415086        2.5518167289        0.3367788021
 H          0.7738697847        2.5684606430        1.4090120470
 H         -0.9576760030        3.5063029646       -0.1148849142
 H         -0.6158000040        3.3965477219       -2.5586357379
 H          1.4253980088        2.3616745842       -3.4764989128
 H          3.1601388291        1.4911481564       -1.9380961890
 H          4.9138948564        0.3864637650       -0.2237560291
 H          4.7822506228       -1.4560470827       -1.7067389874
 H          3.4406322928       -3.3377201374       -2.5695776784
 H          1.2400777267       -3.8411730909       -1.6090208449
 H          0.1693262428       -2.8160825326        1.5026587071
 C         -0.8459264244       -3.5750137557       -0.2228284427
 C         -0.6262002665       -5.0208435897        0.1024854334
 C         -1.8678872200       -4.3268023594        0.5737546769
 H         -2.8088296179       -4.5739511245        0.1053898728
 H         -1.9540963292       -4.0842216099        1.6234345557
 H         -0.7182026547       -5.7489170149       -0.6892617384
 H          0.1289176633       -5.2589501296        0.8363755119
 H         -1.1040127914       -3.3110926081       -1.2419275184
