  62
        -98.94429275
 C         -1.7760001508       -1.2729364876        0.2654318397
 C         -1.3461783092       -0.1792822359       -0.5182051429
 C         -1.9068149917        1.1406240698       -0.1807990695
 C         -2.7966212434        1.2266533622        0.8250105648
 C         -3.5281916326        2.4563142896        1.2879329779
 C         -4.6821881271        2.8503003898        0.3443141304
 C         -4.4110323714        2.6406939967       -1.1448580963
 H         -4.0880603953        1.6106748428       -1.3073368500
 H         -5.3572758322        2.7708870123       -1.6766055040
 C         -3.3941378926        3.5964529687       -1.7649859845
 H         -3.2702672212        3.3127352381       -2.8129700324
 H         -3.7996476550        4.6108019776       -1.7396640419
 C         -2.0169194298        3.6227578973       -1.1036632884
 H         -1.3678957486        4.2514014059       -1.7209538738
 H         -2.0737249894        4.1012938836       -0.1294541630
 C         -1.3195745037        2.2688658991       -0.9920110225
 H         -1.1688630674        1.8609819689       -1.9976975422
 H         -0.3149353627        2.4317412953       -0.5783098437
 H         -4.9389817164        3.8948154356        0.5266432185
 H         -5.5485551932        2.2391051450        0.6074460799
 H         -3.9440469731        2.2281993142        2.2718080223
 H         -2.8192692084        3.2706400965        1.4121355015
 O         -3.2031321131        0.1403533760        1.5416463451
 C         -2.6826246118       -1.1184515927        1.3107297041
 O         -3.1016842220       -2.0053690600        2.0847180844
 H          0.3486089220       -1.1609141497        1.6254979671
 C          0.9409943970       -1.7497495895        0.9397556524
 C          0.3153542589       -2.5880968206        0.0257446385
 C          1.1098242546       -3.3395579912       -0.8320670076
 C          2.4890798121       -3.2292186886       -0.7918629255
 C          3.1036876935       -2.3523995079        0.0832189836
 C          2.3179909436       -1.6040309721        0.9514888781
 N          2.8876229550       -0.6717133191        1.8462787570
 S          2.5223294039        0.9422150364        1.5672221839
 O          3.2876014671        1.6750035750        2.5543807709
 O          1.0964242883        1.1394705447        1.5929096941
 C          3.1942010212        1.2662783825       -0.0539713722
 C          2.4903427150        0.8767937890       -1.1757788409
 C          3.0699654333        1.0687377663       -2.4214983790
 C          4.3303128468        1.6359711343       -2.5244113953
 C          5.0234302193        2.0202324670       -1.3860456224
 C          4.4538128914        1.8295577014       -0.1381370472
 H          4.9515458330        2.1150589375        0.7746991867
 H          6.0029561554        2.4633722227       -1.4667236810
 H          4.7736155401        1.7800180987       -3.4971264731
 H          2.5247562791        0.7675733191       -3.3015528818
 H          1.5074213086        0.4408473120       -1.0782635534
 H          3.8905790792       -0.7640580913        1.9394475016
 H          4.1778061663       -2.2434743757        0.0958036152
 H          3.0917933439       -3.8193804978       -1.4650183121
 H          0.6465652818       -4.0089762731       -1.5384464095
 C         -1.1933693511       -2.6515813398        0.0164640203
 H         -1.5203518427       -3.2786110732        0.8595868664
 C         -1.7553269605       -3.2291097897       -1.2679406065
 C         -1.9801574271       -4.7043172145       -1.4062115346
 C         -3.1491751252       -3.7784517529       -1.2608494049
 H         -3.7793698802       -3.5996182410       -2.1190972842
 H         -3.6797113911       -3.7625527311       -0.3195805207
 H         -1.8116301943       -5.1640003174       -2.3684678991
 H         -1.7260765740       -5.3310613640       -0.5647389183
 H         -1.4412974444       -2.6723308065       -2.1435120231
 O         -0.5271734137       -0.3000815004       -1.4684763379
