  62
        -98.94142167
 C         -1.8078446094       -1.0096929703        0.6856234001
 C         -2.0234049494        0.3790713096        0.8953021705
 C         -3.3927381394        0.8645813197        0.7003266907
 C         -4.3638175494       -0.0040627003        0.3662403906
 C         -5.8182683494        0.3244354498        0.1650454608
 C         -6.1517766196        0.8519299001       -1.2370817191
 C         -5.6715373096        2.2744213501       -1.5275382488
 H         -6.1573510797        2.5937017703       -2.4517835087
 H         -6.0122808095        2.9405690700       -0.7342913987
 C         -4.1515349696        2.4068666602       -1.6975890189
 H         -3.9358509597        3.0148753404       -2.5790750688
 H         -3.7173808496        1.4203323202       -1.8765792792
 C         -3.4336922895        3.0551924899       -0.5136374688
 H         -2.3616052895        3.0615509400       -0.7259770189
 H         -3.7635515995        4.0910723199       -0.4081940486
 C         -3.6465291494        2.3364829296        0.8250764010
 H         -2.9311132493        2.7368394495        1.5472810710
 H         -4.6559563094        2.5182054595        1.1935879011
 H         -5.7313171196        0.1669580502       -1.9770637093
 H         -7.2388531696        0.8290381101       -1.3433921490
 H         -6.1364438994        1.0508094496        0.9134518209
 H         -6.3711564394       -0.6039125003        0.3240386506
 O         -4.1234638694       -1.3280644702        0.1878696603
 C         -2.8470390294       -1.8616236103        0.3109859700
 O         -2.8016025994       -3.0838602002        0.0664525598
 O         -1.1096767994        1.1742159295        1.2412649306
 C         -0.3861797294       -1.5032144304        0.8836684999
 C          0.3725036005       -1.5931632901       -0.4190750702
 C         -0.0550550096       -2.4113573599       -1.4592816203
 C          0.6801410903       -2.4941385996       -2.6274640604
 C          1.8602448103       -1.7854323996       -2.7722091503
 C          2.2966918604       -0.9665060398       -1.7378373802
 C          1.5428616905       -0.8657885401       -0.5769818201
 H          1.8775697806       -0.2154597002        0.2165092100
 N          3.4809857304       -0.2270740898       -1.8541745701
 S          4.4739986305       -0.0103291701       -0.5245515902
 O          5.7708979204        0.2933346101       -1.0908369002
 O          4.4206075706       -1.1423478403        0.3703592296
 C          3.8383087506        1.4463326598        0.2757536802
 C          3.5929655007        1.4275870495        1.6341230302
 C          3.1180188107        2.5764362593        2.2463067505
 C          2.8990306207        3.7186219495        1.4924467608
 C          3.1539842705        3.7225028698        0.1294264708
 C          3.6300177405        2.5774427399       -0.4880288495
 H          3.8406472204        2.5430100802       -1.5439428796
 H          2.9804294205        4.6133334199       -0.4525893590
 H          2.5248966307        4.6098649594        1.9709526110
 H          2.9161141808        2.5740986991        3.3055346305
 H          3.7697383207        0.5151107093        2.1822154500
 H          4.0077780003       -0.3912504896       -2.6993974602
 H          2.4394869602       -1.8639861694       -3.6798039504
 H          0.3376467103       -3.1290097294       -3.4308805505
 H         -0.9665434596       -2.9772778199       -1.3423807604
 H          0.1017124007       -0.7278848205        1.4904503400
 C         -0.2835366093       -2.8221167605        1.6266524496
 C          1.0457083207       -3.2252975807        2.1894847394
 C         -0.0658903492       -2.8175777109        3.1083795396
 H         -0.5494214691       -3.5788801510        3.7020347995
 H          0.0049863808       -1.8588704110        3.6011723198
 H          1.3241803607       -4.2674610407        2.1512707592
 H          1.8770347907       -2.5492669606        2.0500655495
 H         -0.9124838994       -3.5998937105        1.2139395595
