  62
        -98.93880590
 C         -1.7389789472       -0.5003379067        0.1651214142
 C         -2.8761214341       -0.4127284861        1.0084454122
 C         -4.0327337217        0.3607880698        0.5196519695
 C         -3.9474809504        0.9520597283       -0.6861088860
 C         -4.9956364530        1.7536615779       -1.4105736620
 C         -6.0939190934        0.8719216488       -2.0269102383
 C         -6.6038904779       -0.2465528840       -1.1218791719
 H         -7.2905256988       -0.8616060818       -1.7095691181
 H         -5.7660778656       -0.8834101457       -0.8323599568
 C         -7.3464251627        0.2158244157        0.1295248534
 H         -8.2068354644        0.8198584230       -0.1671910228
 H         -7.7261371976       -0.6785019806        0.6302526256
 C         -6.5208626255        1.0118339196        1.1425566058
 H         -7.1011722857        1.0595299824        2.0687144326
 H         -6.3807641044        2.0383662828        0.8144950463
 C         -5.1773205727        0.3858405573        1.5035105173
 H         -4.7869101673        0.8893095490        2.3963495807
 H         -5.3367847500       -0.6548336890        1.8079967117
 H         -6.9260737525        1.5132967326       -2.3219541113
 H         -5.6877832535        0.4094899204       -2.9298652968
 H         -5.4230613044        2.4973069993       -0.7444392610
 H         -4.4834927380        2.2847227092       -2.2161329219
 O         -2.8328183527        0.8497131425       -1.4614202922
 C         -1.7131008784        0.1367836131       -1.0745520347
 O         -0.7940514527        0.1650112412       -1.9195772805
 H          0.8707911918        0.5849310608       -0.5821600687
 C          1.1818194796        0.4642160138        0.4449104969
 C          0.5294734214       -0.4594186611        1.2492863950
 C          0.9431278415       -0.5974617805        2.5687761404
 C          1.9835404709        0.1681713354        3.0673913509
 C          2.6302342589        1.0888161540        2.2622050597
 C          2.2168027512        1.2390382792        0.9452925513
 N          2.8782909327        2.1671370505        0.1076937459
 S          4.4704265826        1.7699498520       -0.2397454919
 O          5.2677326899        1.9682193004        0.9440531569
 O          4.8337341540        2.5595824678       -1.3943757105
 C          4.4131940319        0.0371183929       -0.6563492063
 C          4.0575793372       -0.3178944983       -1.9420078438
 C          3.9375507125       -1.6613965060       -2.2573591717
 C          4.1634409173       -2.6203054188       -1.2820002065
 C          4.5109123671       -2.2472256006        0.0070668577
 C          4.6365239267       -0.9052451435        0.3271428886
 H          4.9092567019       -0.5729394476        1.3151445517
 H          4.6803723340       -2.9961127401        0.7636414327
 H          4.0718847335       -3.6661128399       -1.5311677783
 H          3.6630721187       -1.9540496884       -3.2583028006
 H          3.8938515143        0.4578048669       -2.6732440391
 H          2.3819465355        2.3179029520       -0.7603076376
 H          3.4512104030        1.6850546003        2.6264933641
 H          2.2939510472        0.0477809910        4.0940740367
 H          0.4369374542       -1.3052916142        3.2085830198
 C         -0.5716495785       -1.3230804121        0.6830169423
 H         -0.9878710335       -1.9174031993        1.5072720770
 C          0.0017739074       -2.2714250492       -0.3533237084
 C          0.7567593082       -3.4797675084        0.1085997445
 C         -0.5977471772       -3.6345873491       -0.5138089277
 H         -0.6686422738       -4.0511724575       -1.5072322578
 H         -1.4283694478       -3.8934577068        0.1267730024
 H          1.6214236047       -3.7889480605       -0.4566700227
 H          0.8453401822       -3.6366191308        1.1726360652
 H          0.3487076380       -1.7710300806       -1.2479734826
 O         -2.9329455095       -0.9747388387        2.1353041035
