  62
        -98.94262150
 C         -1.4706504794       -1.4457010490        0.2926913442
 C         -1.9665990291       -0.9572028957       -0.9411057542
 C         -2.8826170398        0.1910522957       -0.8504746613
 C         -3.2035967894        0.6905755343        0.3567605839
 C         -4.0752623952        1.8912003642        0.5834250354
 C         -3.2422620177        3.1789095630        0.6467417745
 C         -2.2419098309        3.3237721119       -0.5002224248
 H         -1.7270489452        4.2777310485       -0.3674388391
 H         -1.4872543177        2.5375283393       -0.4177481317
 C         -2.8732522211        3.2791600258       -1.8990786714
 H         -3.9445686846        3.4707526774       -1.8283525459
 H         -2.4408177802        4.0786784745       -2.5045539456
 C         -2.6446588574        1.9721813282       -2.6607727591
 H         -2.9450996243        2.1282059978       -3.7004039389
 H         -1.5781785098        1.7306727696       -2.6646805981
 C         -3.4135307101        0.7511332579       -2.1400943593
 H         -4.4737281615        0.9955962601       -2.0492482699
 H         -3.3073133123       -0.0475847502       -2.8803234855
 H         -2.6896865350        3.1838996375        1.5883835258
 H         -3.9232152215        4.0318203465        0.6467643891
 H         -4.8081913637        1.9582726235       -0.2182084525
 H         -4.5996537598        1.7612764098        1.5314991965
 O         -2.7279922443        0.1786393501        1.5195138686
 C         -1.8528968547       -0.8952387577        1.5173730207
 O         -1.4938920832       -1.2675828509        2.6512594656
 H          0.4323773598       -0.2287175421       -0.6686315105
 C          1.1820097407       -1.0089962660       -0.6788510183
 C          0.8625944415       -2.2772155215       -0.2200485532
 C          1.8571957690       -3.2518626549       -0.2445254633
 C          3.1286585506       -2.9609373765       -0.7036893295
 C          3.4404045236       -1.6913350523       -1.1597623148
 C          2.4532636167       -0.7191852105       -1.1564789365
 N          2.7772141609        0.5892007753       -1.5999502970
 S          3.5220111534        1.5229067027       -0.4234378202
 O          3.7011558883        2.8346283715       -1.0013509585
 O          4.7130249651        0.8381549650        0.0066065327
 C          2.3317032598        1.5966432002        0.9024062772
 C          1.4476427391        2.6557983028        0.9466017947
 C          0.4581221421        2.6624272321        1.9165556125
 C          0.3557434284        1.6031133679        2.8048054179
 C          1.2481793098        0.5440615587        2.7443417866
 C          2.2488250173        0.5380007273        1.7858182793
 H          2.9644103789       -0.2652275123        1.7125282802
 H          1.1456569497       -0.2839261852        3.4270120053
 H         -0.4302330212        1.5880151153        3.5436268941
 H         -0.2329817667        3.4884185489        1.9711867433
 H          1.5563093373        3.4554874436        0.2310817990
 H          1.9743727202        1.0944277377       -1.9493507034
 H          4.4288072761       -1.4363428897       -1.5046722848
 H          3.8868844697       -3.7287533403       -0.7056393170
 H          1.6285569769       -4.2452307497        0.1075217646
 C         -0.5009739264       -2.6065627924        0.3459696917
 H         -0.3652390204       -2.8317469865        1.4142842089
 C         -1.0848824887       -3.8358570700       -0.3315057285
 C         -0.9101663323       -5.1974365665        0.2683376998
 C         -2.2504979500       -4.5292165272        0.3058975846
 H         -3.0395069535       -4.9029952922       -0.3289934647
 H         -2.5993616610       -4.1403880342        1.2520502847
 H         -0.7739865676       -6.0379980054       -0.3951056469
 H         -0.3698636456       -5.2758209709        1.2000513704
 H         -1.0899795629       -3.7532531393       -1.4117302086
 O         -1.6569887425       -1.4365715117       -2.0635400889
