  62
        -98.93682759
 C         -1.3378659111       -1.2535915799       -0.6501817731
 C         -2.5499628297       -1.2201605164        0.0829581458
 C         -3.3522669986        0.0134920893        0.0147746865
 C         -2.8834910425        1.0523784618       -0.6990220253
 C         -3.5034500445        2.4095410522       -0.9173751643
 C         -4.1064651072        3.0952786640        0.3180229899
 C         -5.6345576863        3.1620204293        0.2922368290
 H         -5.9578052779        3.9919384024        0.9245070122
 H         -5.9545200435        3.3851509091       -0.7276649091
 C         -6.3483502255        1.9032803081        0.7818413893
 H         -6.2278703435        1.8183530756        1.8640506940
 H         -7.4149771037        2.0299761925        0.5822380830
 C         -5.8815318212        0.5947069564        0.1409871165
 H         -6.6904658429       -0.1321510955        0.2403273454
 H         -5.7062395672        0.7326611735       -0.9252430959
 C         -4.6326351804       -0.0048205704        0.8044895094
 H         -4.8047491855       -1.0631966310        1.0246998813
 H         -4.4548125085        0.4759447856        1.7712743263
 H         -3.7606585974        2.5966938744        1.2227132492
 H         -3.7243124449        4.1170922090        0.3505369719
 H         -4.2603187979        2.3248477579       -1.7014159070
 H         -2.6977407606        3.0244909939       -1.3249738546
 O         -1.7110627614        0.9815810938       -1.3859268889
 C         -0.9056293388       -0.1441403052       -1.3742691576
 O          0.1321210053       -0.0119031520       -2.0527861997
 O         -2.9569167222       -2.1994927401        0.7670337409
 C         -0.5183618896       -2.5285936515       -0.5396111658
 C          0.4461256282       -2.4175768335        0.6185330226
 C          0.4322056716       -3.3491075105        1.6490302577
 C          1.2872167425       -3.2134708707        2.7284435625
 C          2.1475214161       -2.1346626485        2.8099266971
 C          2.1700010855       -1.1956319533        1.7826166702
 C          1.3445890797       -1.3610455827        0.6811495915
 H          1.3674710764       -0.6345143732       -0.1132210109
 N          3.0311423546       -0.0926807536        1.8529680397
 S          2.6006937774        1.4370391672        1.3061778425
 O          3.1570690443        2.3390970444        2.2963535881
 O          1.1807188891        1.5451884672        1.0765449854
 C          3.5455326327        1.6148638420       -0.1931024404
 C          2.9654154223        1.4225765452       -1.4296402024
 C          3.7546044182        1.5522194646       -2.5635363242
 C          5.0980618100        1.8694905498       -2.4445378106
 C          5.6652729227        2.0628174447       -1.1934882882
 C          4.8842415565        1.9342127357       -0.0577055091
 H          5.2792625483        2.0906224770        0.9323362620
 H          6.7099286891        2.3128780576       -1.1016746201
 H          5.7041469640        1.9686247383       -3.3313417377
 H          3.3058356437        1.4001735616       -3.5323353858
 H          1.9180628124        1.1727545281       -1.5067068251
 H          3.5522327698       -0.0278999820        2.7153427924
 H          2.7949633807       -2.0115505965        3.6650567797
 H          1.2688280562       -3.9427279830        3.5241620835
 H         -0.2691157930       -4.1694701469        1.6115960377
 H         -1.2423885743       -3.3173903623       -0.2920079374
 C          0.2062801898       -2.9256235591       -1.8093160906
 C          0.5646292320       -4.3653602100       -2.0192547387
 C         -0.5150217292       -3.7333074089       -2.8444628225
 H         -0.3195749893       -3.5254383406       -3.8854934061
 H         -1.5401448967       -4.0062270697       -2.6397240722
 H          1.5058083293       -4.5963319026       -2.4935772604
 H          0.2706054536       -5.0713086736       -1.2574488306
 H          0.9024794810       -2.1761859420       -2.1610131536
