  62
        -98.94519530
 C         -1.4980789523       -0.6620363359       -0.5255452338
 C         -2.6902598054       -1.0986515411        0.1099270949
 C         -3.5562228286       -0.0562201793        0.6727973571
 C         -3.1683391007        1.2292718111        0.5923418486
 C         -3.9675124188        2.4000057407        1.0857503165
 C         -4.8783813289        2.9569773739       -0.0173809240
 C         -5.7030602541        1.8882173715       -0.7348494399
 H         -6.3280904522        2.3993333545       -1.4702568738
 H         -5.0285519761        1.2300458408       -1.2871392487
 C         -6.5894595371        1.0429425157        0.1904507306
 H         -7.5787937516        0.9492925748       -0.2622126740
 H         -6.7174983802        1.5514097408        1.1467132478
 C         -6.0767535208       -0.3771773524        0.4372338125
 H         -5.8573075532       -0.8586795211       -0.5189566172
 H         -6.8763902320       -0.9488284876        0.9157217219
 C         -4.8350126111       -0.4932380813        1.3304936722
 H         -4.9969666151        0.0562581739        2.2602967073
 H         -4.6987903657       -1.5505504362        1.5761036343
 H         -5.5457296631        3.6973148608        0.4276149774
 H         -4.2544118327        3.4629106305       -0.7576954534
 H         -4.5632654639        2.0899600512        1.9422975947
 H         -3.2726956836        3.1799584140        1.4026327772
 O         -2.0125884921        1.6117494743       -0.0022627727
 C         -1.1498662000        0.6879742116       -0.5780096982
 O         -0.1491865758        1.2124043808       -1.1023566826
 O         -3.0193124752       -2.3129186048        0.1930740423
 C         -0.6034182074       -1.7525716637       -1.0944010834
 C          0.4130707661       -2.1588727712       -0.0527402292
 C          0.3279167005       -3.4024735678        0.5620745503
 C          1.2322430964       -3.7634289002        1.5446511118
 C          2.2287970157       -2.8887152073        1.9343729921
 C          2.3234313243       -1.6400574622        1.3261237027
 C          1.4263796361       -1.2887014335        0.3279295113
 H          1.4872783063       -0.3130335431       -0.1237910800
 N          3.3416295140       -0.7567286133        1.7003356468
 S          3.1970700661        0.9089738854        1.6075322467
 O          4.1466171875        1.3889629716        2.5924845132
 O          1.8322426425        1.3435079946        1.7831925155
 C          3.8349221756        1.2874289164       -0.0107164931
 C          5.1844639886        1.0660818223       -0.2133456349
 C          5.7312520286        1.3350639071       -1.4563928674
 C          4.9224482823        1.8202083150       -2.4737714214
 C          3.5723935267        2.0398944147       -2.2528067598
 C          3.0172358359        1.7739083420       -1.0091385763
 H          1.9655284341        1.9239448406       -0.8183893279
 H          2.9383436282        2.4147337633       -3.0406844299
 H          5.3455936627        2.0291568835       -3.4437968268
 H          6.7818755739        1.1663513570       -1.6296285721
 H          5.7773942955        0.7001596123        0.6082400303
 H          3.8897525354       -1.0464925619        2.4962848007
 H          2.9285508618       -3.1630973136        2.7091663296
 H          1.1546160097       -4.7303948518        2.0182852906
 H         -0.4684635031       -4.0757606918        0.2809990306
 H         -1.2691526398       -2.6117968902       -1.2560888922
 C          0.0556299295       -1.4055583371       -2.4128548695
 C          0.5406661494       -2.5182588442       -3.2915932401
 C         -0.6588626182       -1.7144743549       -3.6929048878
 H         -0.5671968275       -1.0187078954       -4.5131750195
 H         -1.6314351469       -2.1799546274       -3.6235157024
 H          1.4605576311       -2.3773192020       -3.8375019992
 H          0.3805445871       -3.5301576426       -2.9513135495
 H          0.6420206852       -0.4974829499       -2.3817916363
