  62
        -98.94127066
 C          1.8359648368        0.9371991845        0.7047046802
 C          2.0867116956       -0.4527948718        0.8612718328
 C          3.4733002938       -0.8918622648        0.6786360568
 C          4.4267710621        0.0166407662        0.4052918994
 C          5.8947062845       -0.2621185250        0.2281258964
 C          6.2781434794       -0.7196747590       -1.1857361632
 C          5.8465523412       -2.1413820320       -1.5473925950
 H          6.1868123849       -2.8306445149       -0.7739368695
 H          6.3636668648       -2.4078536183       -2.4713734283
 C          4.3355462398       -2.3083893928       -1.7613312551
 H          4.1584993078       -2.8833222685       -2.6730936998
 H          3.8775172436       -1.3274992356       -1.9089053902
 C          3.6086132264       -3.0270163997       -0.6244905578
 H          3.9669209120       -4.0563867022       -0.5540167102
 H          2.5428162117       -3.0557444383       -0.8648509627
 C          3.7664224333       -2.3600991928        0.7483074001
 H          4.7710464215       -2.5291203823        1.1355482561
 H          3.0448619011       -2.8105873103        1.4339600865
 H          7.3663632825       -0.6618548484       -1.2628360099
 H          5.8563665684       -0.0159374926       -1.9071118390
 H          6.2151918637       -1.0106165027        0.9534017479
 H          6.4162324619        0.6737152062        0.4403340629
 O          4.1525210265        1.3396590217        0.2757405893
 C          2.8590096041        1.8321203111        0.3906201588
 O          2.7847245595        3.0619517025        0.1954555381
 O          1.1885860151       -1.2866747066        1.1528828157
 C          0.3978598849        1.3823558247        0.8952332577
 C         -0.3473841654        1.5147357274       -0.4116288120
 C          0.0979969088        2.3519451068       -1.4287134256
 C         -0.6326507298        2.4797641240       -2.5958346769
 C         -1.8283634137        1.8020233502       -2.7597736427
 C         -2.2842953472        0.9670930869       -1.7470354507
 C         -1.5318046954        0.8157121719       -0.5910475519
 H         -1.8802522658        0.1488365217        0.1824137696
 N         -3.4909662240        0.2654596210       -1.8742658816
 S         -4.5024172495        0.1059875646       -0.5480426993
 O         -5.8132156663       -0.1174543130       -1.1192768912
 O         -4.3812275871        1.2303255588        0.3495807278
 C         -3.9607749772       -1.3887985336        0.2513932596
 C         -3.6333078472       -1.3687869159        1.5923779926
 C         -3.2300010210       -2.5458340197        2.2025013852
 C         -3.1641306406       -3.7170652442        1.4642195565
 C         -3.5010162273       -3.7218054891        0.1190184679
 C         -3.9048405966       -2.5481868844       -0.4963107212
 H         -4.1783787218       -2.5129265688       -1.5376520687
 H         -3.4478312533       -4.6356852580       -0.4505177958
 H         -2.8469309605       -4.6308964723        1.9413483503
 H         -2.9652324648       -2.5432103337        3.2478158486
 H         -3.6948830421       -0.4349309464        2.1295963954
 H         -4.0080421255        0.4567744557       -2.7200102686
 H         -2.4053766749        1.9187804529       -3.6647227981
 H         -0.2753896390        3.1282210138       -3.3818242334
 H          1.0173523845        2.9008217511       -1.2935265903
 H         -0.0789649235        0.5684512079        1.4587706832
 C          0.2456432746        2.6652906948        1.6922202298
 C         -1.1087798155        3.0247609248        2.2239397287
 C         -0.0243702679        2.5918853679        3.1635220729
 H          0.4256083438        3.3326481479        3.8074513576
 H         -0.0975693340        1.6111578617        3.6104979199
 H         -1.4004558706        4.0640669396        2.2207958693
 H         -1.9261071148        2.3469230638        2.0239019780
 H          0.8751941609        3.4699581243        1.3355874427
