  62
        -98.93791804
 C         -1.2758256445       -1.3604085850        0.1561566409
 C         -1.5034845767       -0.0297424556        0.5876792803
 C         -2.6947450396        0.6620592790        0.0594260011
 C         -3.4802924618        0.0118525017       -0.8186072071
 C         -4.7560591234        0.4850531007       -1.4638584345
 C         -5.9553076371        0.4487965999       -0.5036854109
 C         -5.6781000358        1.0052415771        0.8902335291
 H         -6.5704634566        0.8352552025        1.4986370173
 H         -4.8637194813        0.4393863699        1.3461843154
 C         -5.3533585374        2.4962879224        0.9430250166
 H         -6.1805624108        3.0588434789        0.5044563708
 H         -5.2861215768        2.7748685498        1.9978846632
 C         -4.0534288342        2.9228569803        0.2567205039
 H         -3.8256775250        3.9371924417        0.5969791843
 H         -4.1780432059        2.9792370823       -0.8211974023
 C         -2.8414475331        2.0630718691        0.6010867951
 H         -2.7591338634        1.9772392118        1.6906877614
 H         -1.9345492112        2.5893880186        0.2844796845
 H         -6.2668497175       -0.5925418457       -0.3904509562
 H         -6.7796404978        0.9989821489       -0.9607613521
 H         -4.6214451909        1.4806914138       -1.8756922910
 H         -4.9565373112       -0.1948301405       -2.2948557711
 O         -3.2081500947       -1.2588981647       -1.2269458376
 C         -2.1189746201       -1.9771629893       -0.7676519418
 O         -2.0345026509       -3.1198203358       -1.2589609734
 O         -0.7457139848        0.5632824759        1.4019524299
 C         -0.0568900791       -2.0637624566        0.7284076270
 C          1.1032070611       -1.9672289285       -0.2324470282
 C          1.1153944894       -2.6664387646       -1.4353561214
 C          2.1895712835       -2.5508118920       -2.2979827565
 C          3.2635675422       -1.7355023516       -1.9857100043
 C          3.2582560798       -1.0297749977       -0.7881683462
 C          2.1814001151       -1.1514895176        0.0796473656
 H          2.1889733189       -0.6017195788        1.0087962765
 N          4.3378332726       -0.2084856317       -0.4423340771
 S          4.1537504999        1.1154904726        0.5501541024
 O          5.3246722126        1.9227180696        0.2763391816
 O          3.9970993782        0.6949880245        1.9201274638
 C          2.7005318800        1.9911969638       -0.0022475484
 C          2.4678130275        2.1307002208       -1.3560458590
 C          1.3738163592        2.8702785025       -1.7737105847
 C          0.5441695277        3.4676813980       -0.8373902168
 C          0.7940682284        3.3221586413        0.5176068218
 C          1.8796032759        2.5732431777        0.9406730515
 H          2.0953214538        2.4223349833        1.9859951752
 H          0.1471969152        3.7796176059        1.2488505328
 H         -0.3023979655        4.0497298973       -1.1681855454
 H          1.1720759775        2.9806362310       -2.8272554567
 H          3.1312034150        1.6657724995       -2.0670940368
 H          5.0333558575       -0.0683239967       -1.1591840848
 H          4.1016690131       -1.6478372647       -2.6600311730
 H          2.1895370809       -3.0989606081       -3.2279586858
 H          0.2693313352       -3.2842565401       -1.6929457339
 H          0.2122644380       -1.4884389887        1.6250596477
 C         -0.3165812208       -3.4984274805        1.1419216324
 C          0.6307746386       -4.1543736792        2.0996017351
 C         -0.7530096741       -3.7894905984        2.5448410640
 H         -1.4697476893       -4.5804804227        2.7072651164
 H         -0.8669189555       -2.9524897987        3.2185744475
 H          0.8673874249       -5.1976033192        1.9575165504
 H          1.4551609180       -3.5630033650        2.4701005068
 H         -0.7414064549       -4.1080270566        0.3557261495
