  62
        -98.94648555
 C         -1.4234121998       -1.5640742914       -0.4219162754
 C         -1.2744274180       -0.2437503543       -0.9156380599
 C         -2.4762207735        0.6006678348       -0.8511038512
 C         -3.6380538930        0.0942768768       -0.4023547892
 C         -4.9637572374        0.8060062805       -0.3599709783
 C         -5.1835580151        1.6714768211        0.8874051967
 C         -4.3512202076        2.9527442704        0.9385276239
 H         -4.4847045282        3.5105324279        0.0111127725
 H         -4.7511093670        3.5658545910        1.7485685616
 C         -2.8557796427        2.7161901495        1.1899576560
 H         -2.4964255487        3.4042671993        1.9588425199
 H         -2.7031939340        1.7068110251        1.5797976425
 C         -1.9577326269        2.9057759916       -0.0326243913
 H         -1.9708517454        3.9555855691       -0.3369265280
 H         -0.9392987979        2.6500089409        0.2724291488
 C         -2.3366793999        2.0404368948       -1.2420826550
 H         -1.5332037425        2.1075333911       -1.9796058693
 H         -3.2595243111        2.4077747788       -1.6917144430
 H         -6.2405887489        1.9465243578        0.9118800355
 H         -4.9756075620        1.0681400810        1.7740776401
 H         -5.0727813893        1.4222108881       -1.2530702009
 H         -5.7309946402        0.0287442928       -0.3774880281
 O         -3.7483000139       -1.1865916591        0.0399842574
 C         -2.6466927414       -2.0242060027        0.0751493985
 O         -2.8860200231       -3.1548073729        0.5476773517
 O         -0.2162779294        0.2236621652       -1.4118263456
 C         -0.2875555392       -2.5760637312       -0.3859245745
 C          0.6363898627       -2.3124274280        0.7787780851
 C          0.7485391989       -3.2258189192        1.8208783645
 C          1.6025706917       -2.9796447136        2.8813060636
 C          2.3543923419       -1.8193024656        2.9247523789
 C          2.2456122539       -0.8976942402        1.8890961366
 C          1.3971792402       -1.1528990989        0.8222797417
 H          1.3012988492       -0.4266004561        0.0327634297
 N          3.0138014212        0.2744789016        1.8820758305
 S          2.3919685912        1.6888454535        1.2347359608
 O          3.2490814768        2.7273820270        1.7748943863
 O          0.9864824474        1.8361275353        1.5328676210
 C          2.6859427281        1.5809322426       -0.5170803309
 C          1.9288204069        2.3726518413       -1.3552376482
 C          2.1717743356        2.3306835455       -2.7183726327
 C          3.1646847481        1.5031263016       -3.2170307021
 C          3.9217751933        0.7193467371       -2.3603197809
 C          3.6858407264        0.7585911328       -0.9956675218
 H          4.2492820403        0.1524012856       -0.3057246903
 H          4.6912993245        0.0728761690       -2.7512510005
 H          3.3457897109        1.4656360192       -4.2799546320
 H          1.5792409127        2.9368228287       -3.3850343213
 H          1.1545825548        2.9918236507       -0.9316112234
 H          3.5537728045        0.4474849353        2.7170195217
 H          3.0177853237       -1.6247884243        3.7538061793
 H          1.6802861683       -3.6957537818        3.6854621220
 H          0.1494351046       -4.1247865951        1.8015968358
 H         -0.7668137601       -3.5502650150       -0.2189058248
 C          0.4904129115       -2.6403594149       -1.6870298920
 C          1.2909993094       -3.8690141173       -1.9925387946
 C          0.0397708293       -3.5777265948       -2.7646036258
 H          0.1267408586       -3.2596283533       -3.7925163371
 H         -0.8343604830       -4.1819167053       -2.5680336591
 H          2.2408148429       -3.7527224897       -2.4908685077
 H          1.2656763153       -4.6742435181       -1.2738638324
 H          0.8928906837       -1.6847653271       -1.9955053302
