  62
        -98.94625494
 C         -2.3943777311       -0.4946532732       -0.0120312032
 C         -1.4030134482       -0.7081525131        0.9731708331
 C         -0.7367713298       -2.0159582429        0.9512455577
 C         -1.0944104712       -2.9166077370        0.0182357901
 C         -0.4141909503       -4.2341411077       -0.2205054572
 C          0.8944302035       -3.9989148919       -1.0037203977
 C          2.1658705818       -4.3539326732       -0.2319406284
 H          2.2735101605       -5.4408045609       -0.2030760429
 H          3.0081174579       -3.9511172567       -0.7991618781
 C          2.2396449026       -3.8335989900        1.2069419787
 H          1.6635460779       -4.4887199806        1.8626111664
 H          3.2822925477       -3.9141511651        1.5214578202
 C          1.7710833257       -2.3879263752        1.4179012349
 H          1.8454431089       -1.8211490353        0.4886914841
 H          2.4415900339       -1.9109647361        2.1363719580
 C          0.3391770950       -2.2581134965        1.9727215147
 H          0.0915606802       -3.1430965933        2.5653572383
 H          0.2986016692       -1.3909248717        2.6379764450
 H          0.8782626941       -4.5850844531       -1.9245057562
 H          0.9339747129       -2.9484485279       -1.3035088655
 H         -0.2112386506       -4.7253431488        0.7286263841
 H         -1.0968957151       -4.8566888483       -0.7995724566
 O         -2.0788816178       -2.6903363220       -0.8903604928
 C         -2.7288725815       -1.4682534626       -0.9498726241
 O         -3.5741688587       -1.3746579626       -1.8649548993
 H         -0.8510680353        0.6667765260       -1.6322715180
 C         -0.8833241548        1.6155535809       -1.1164474674
 C         -1.9613942846        1.9161739026       -0.2933080829
 C         -1.9843301750        3.1526040282        0.3396164858
 C         -0.9367889208        4.0432824398        0.1763448852
 C          0.1623702825        3.7131540950       -0.5954643405
 C          0.1882080764        2.4835584090       -1.2435212714
 N          1.2893312210        2.0856896019       -2.0299516920
 S          2.1258334811        0.7084683800       -1.5670150599
 O          3.2066260785        0.5926299556       -2.5230654433
 O          1.2283708831       -0.4147537356       -1.4864975539
 C          2.8054091726        1.1094818359        0.0334848942
 C          1.9781130906        1.1411440764        1.1379945888
 C          2.5163278311        1.5129206003        2.3608497383
 C          3.8581551850        1.8455114870        2.4594915408
 C          4.6746415021        1.8098727664        1.3389089500
 C          4.1441188466        1.4434884093        0.1129930146
 H          4.7390149883        1.3989483047       -0.7849918138
 H          5.7187302463        2.0672762496        1.4160234574
 H          4.2685130191        2.1329573189        3.4147074143
 H          1.8727166254        1.5373831991        3.2256956351
 H          0.9374146623        0.8718652726        1.0493731051
 H          1.9539360212        2.8275880620       -2.2034311234
 H          0.9929344813        4.3954270959       -0.6968576015
 H         -0.9674013996        4.9996109768        0.6756662274
 H         -2.8191565615        3.4154621901        0.9685619391
 C         -3.0426369344        0.8731940297       -0.1309148959
 H         -3.6457513179        0.8490714656       -1.0506792303
 C         -3.9561688659        1.1351298266        1.0487719149
 C         -5.1766596985        1.9896778769        0.8880906116
 C         -5.3165210129        0.5077860792        1.0601884974
 H         -5.7020934138        0.1282144294        1.9944159598
 H         -5.5927239954       -0.0864710417        0.2009606942
 H         -5.3726987559        2.4046334513       -0.0891088836
 H         -5.4714749441        2.6276775753        1.7075810529
 H         -3.4172635795        1.1788016504        1.9881187605
 O         -1.0777805265        0.1645938719        1.8223146328
