  62
        -98.93457964
 C         -1.9082216496       -0.9607500360        0.1951715233
 C         -2.3439706966        0.0499360071        1.0857001652
 C         -2.5539133421        1.3909825386        0.5180344398
 C         -2.2842586624        1.6022176605       -0.7811700981
 C         -2.3711147360        2.8903130123       -1.5618461996
 C         -3.5845106760        3.7951874365       -1.3082169761
 C         -4.8881267287        3.0540918348       -0.9764355478
 H         -5.6810766528        3.4212709486       -1.6303987687
 H         -4.7706858501        1.9870934152       -1.1731268511
 C         -5.3402120241        3.2596754580        0.4712948730
 H         -6.4074596845        3.0367632634        0.5410821037
 H         -5.2072706673        4.3114304075        0.7332948220
 C         -4.6287458624        2.3930986302        1.5097887081
 H         -4.9378883819        1.3502346047        1.3983596299
 H         -4.9538816830        2.7186648609        2.5007148455
 C         -3.0923720255        2.4285767623        1.4610155998
 H         -2.7262508662        3.4226707047        1.2152917088
 H         -2.7159619379        2.1563576370        2.4511697478
 H         -3.3565651198        4.4917377524       -0.5026955592
 H         -3.7243728167        4.3928438957       -2.2105106457
 H         -1.4521804200        3.4549885999       -1.3764978038
 H         -2.3521610746        2.5863567317       -2.6114166792
 O         -1.8351874344        0.6095968141       -1.5987041158
 C         -1.6121775178       -0.6790750433       -1.1389950369
 O         -1.1763020412       -1.4552402813       -2.0101505527
 H          0.5959579068       -0.9251644569        1.0654184792
 C          0.8038155471       -1.8712864642        0.5844826639
 C         -0.2355472535       -2.7640764165        0.3507684099
 C          0.0542264397       -3.9738482223       -0.2646046048
 C          1.3501368441       -4.2639296639       -0.6565821231
 C          2.3724706678       -3.3549915967       -0.4606010225
 C          2.0932345917       -2.1441381701        0.1646661132
 N          3.1087163287       -1.1972800987        0.3959445203
 S          2.7000649360        0.4389519915        0.2900677439
 O          2.1302839269        0.8558481396        1.5484144893
 O          1.9054076366        0.6940852457       -0.8903273950
 C          4.3250082930        1.1528288302        0.1101537828
 C          5.1020525724        1.3263954687        1.2400185703
 C          6.3789647691        1.8467381374        1.1011147261
 C          6.8554616317        2.1818161085       -0.1577729468
 C          6.0635506677        2.0036487338       -1.2821654875
 C          4.7857874748        1.4824418407       -1.1503645740
 H          4.1303358171        1.3327629043       -1.9936468557
 H          6.4346752174        2.2678288247       -2.2592589693
 H          7.8493283723        2.5870378439       -0.2633233396
 H          6.9962825265        1.9892309561        1.9732858734
 H          4.6841658865        1.0595033195        2.1966084745
 H          3.9486549244       -1.3958068210       -0.1315199473
 H          3.3763817317       -3.5734981222       -0.7917171941
 H          1.5620245126       -5.2046590578       -1.1419151006
 H         -0.7365548736       -4.6780316666       -0.4643537214
 C         -1.6184659621       -2.3349930055        0.7732210608
 H         -1.5994315683       -2.1680392178        1.8643982092
 C         -2.6935507855       -3.3792329086        0.5153611418
 C         -4.1088099365       -2.9753086875        0.2319755464
 C         -3.2808601701       -3.6078853328       -0.8439523764
 H         -3.5131330141       -4.6214678370       -1.1366424764
 H         -2.9213310968       -2.9892243579       -1.6507666317
 H         -4.3200424537       -1.9181255063        0.1580578360
 H         -4.9062197819       -3.5507790299        0.6777434755
 H         -2.5645820755       -4.2558659121        1.1429046062
 O         -2.5376791380       -0.1569794180        2.3149607227
