  62
        -98.94110542
 C          0.7713800224        1.2169948332       -0.0023959116
 C          1.4801904948        0.5188219897        1.0021126759
 C          2.4397859900       -0.4975685639        0.5386154321
 C          2.5687534867       -0.7296331679       -0.7789839570
 C          3.5176255747       -1.6708403504       -1.4793245154
 C          4.9584218159       -1.7425703112       -0.9533822454
 C          5.5133176542       -0.4298188676       -0.3816573476
 H          4.8441489931        0.3980564505       -0.6216842149
 H          6.4759489329       -0.2169425611       -0.8502057541
 C          5.7310530705       -0.4855260894        1.1324562779
 H          6.4470465195        0.2901260862        1.4146921509
 H          6.1777569901       -1.4491991561        1.3871425063
 C          4.4784003780       -0.2749486956        1.9825457197
 H          4.1606289238        0.7694999109        1.9234775027
 H          4.7410672998       -0.4695230710        3.0253748427
 C          3.2700746464       -1.1482117806        1.6073104554
 H          2.6248267314       -1.2223138648        2.4874891428
 H          3.5832321153       -2.1496976234        1.3220884491
 H          5.5820749522       -2.0670136967       -1.7881030178
 H          5.0298433306       -2.5169928697       -0.1908764219
 H          3.0900695686       -2.6762365879       -1.4663789953
 H          3.5256976014       -1.3375457820       -2.5196270259
 O          1.7913574110       -0.1016983332       -1.7050648173
 C          0.8855334228        0.8850100600       -1.3512513992
 O          0.2651246023        1.3790685734       -2.3102161625
 H         -1.6657756572        0.3421230733        1.1102710024
 C         -2.1848815413        0.9952268592        0.4230209945
 C         -1.5423182969        2.1315556466       -0.0548188330
 C         -2.2332413656        2.9776177332       -0.9119927709
 C         -3.5301097760        2.6799902061       -1.2922886428
 C         -4.1613805921        1.5412275972       -0.8288567373
 C         -3.4820706935        0.6940132544        0.0408433665
 N         -4.1065293258       -0.4561811042        0.5397254982
 S         -3.2376122186       -1.7602257085        1.0883708988
 O         -4.1843191300       -2.8557883673        1.0495229171
 O         -2.6712954273       -1.4781027125        2.3838317885
 C         -1.9372364554       -2.0774402119       -0.0914815210
 C         -0.7483440597       -2.5907617636        0.3843093156
 C          0.2442115522       -2.9373524578       -0.5169027134
 C          0.0378567950       -2.7506127743       -1.8745801855
 C         -1.1555280734       -2.2196312287       -2.3365239098
 C         -2.1590137330       -1.8887201054       -1.4406714328
 H         -3.0968919684       -1.4831459747       -1.7832981187
 H         -1.3065646065       -2.0610745443       -3.3920567798
 H          0.8111166337       -3.0133156580       -2.5790254512
 H          1.1706008415       -3.3494971201       -0.1503775698
 H         -0.6193831080       -2.7020260612        1.4494518909
 H         -4.9790740840       -0.7132922094        0.1042351611
 H         -5.1711547921        1.3074514604       -1.1291167155
 H         -4.0546186366        3.3420664987       -1.9641750461
 H         -1.7555720292        3.8655982199       -1.2904053383
 C         -0.1258704602        2.3749001671        0.3972768810
 H         -0.1191478947        2.3821949581        1.4973887862
 C          0.4619238240        3.6786161683       -0.1031756217
 C          0.1258940759        4.9675278683        0.5835181926
 C          1.4950454982        4.3759322894        0.7279619975
 H          2.3221213952        4.8568397248        0.2273211580
 H          1.7611612220        3.9227481910        1.6719708179
 H         -0.5384807741        4.9209059419        1.4330551726
 H          0.0142836737        5.8585299574       -0.0154678789
 H          0.5984200114        3.6907946742       -1.1788509441
 O          1.3336610183        0.7456152587        2.2337784813
