  62
        -98.95136028
 C         -2.3393212096       -0.0763823010        0.1122541334
 C         -1.6094544380        0.4857259817       -0.9615484685
 C         -1.4412553831        1.9433692468       -0.9279061160
 C         -1.8904408619        2.6400322242        0.1317731362
 C         -1.7986381361        4.1302928916        0.3177242474
 C         -0.4403003534        4.6061408089        0.8504040803
 C          0.6945341716        4.6074978745       -0.1742449870
 H          0.3674248557        5.1253580048       -1.0770546442
 H          1.5130062102        5.1869796750        0.2576437074
 C          1.2224314124        3.2132054294       -0.5396270271
 H          0.9318753543        2.4942331773        0.2304085807
 H          2.3157859705        3.2315072156       -0.5509565066
 C          0.7681255874        2.6987038798       -1.9047491801
 H          1.1681981923        3.3456322924       -2.6893297464
 H          1.1889264057        1.7010555555       -2.0428695331
 C         -0.7526494513        2.6081546346       -2.0835396341
 H         -1.1686964174        3.6044523972       -2.2364818084
 H         -0.9534579807        2.0059977221       -2.9734808544
 H         -0.1583407509        3.9792318781        1.7002366186
 H         -0.5724835749        5.6269484710        1.2173374566
 H         -2.0185451854        4.6339828018       -0.6243691477
 H         -2.5685670188        4.3994169459        1.0442344891
 O         -2.5217430175        2.0519522091        1.1826966037
 C         -2.7651494095        0.6894086073        1.1965228337
 O         -3.3675669917        0.2832763194        2.2131996345
 H         -0.5261798407       -0.9963587812        1.6921337792
 C         -0.3210331015       -1.8559115230        1.0707086744
 C         -1.2961046438       -2.3188893484        0.1966193887
 C         -1.0130531360       -3.4352290038       -0.5802199611
 C          0.2248456858       -4.0501670194       -0.4969748355
 C          1.2104240348       -3.5531660993        0.3366678496
 C          0.9332407089       -2.4408363785        1.1230284811
 N          1.9085716986       -1.8662971834        1.9654946035
 S          2.3554118974       -0.2860146902        1.6218375399
 O          3.4306272128        0.0089023031        2.5444939144
 O          1.2049768937        0.5769344225        1.6875289007
 C          3.0090548401       -0.3728929114       -0.0360713058
 C          4.3804889621       -0.3555900428       -0.2064233593
 C          4.9029227087       -0.5016765262       -1.4809241211
 C          4.0489746504       -0.6772521855       -2.5597504667
 C          2.6762126921       -0.6992096472       -2.3715865945
 C          2.1451872403       -0.5446419709       -1.0994050185
 H          1.0783989539       -0.5501438490       -0.9391354451
 H          2.0013326869       -0.8336234005       -3.2020600685
 H          4.4536120335       -0.7971676687       -3.5522845626
 H          5.9707504909       -0.4825242898       -1.6281279739
 H          5.0037860731       -0.2203475593        0.6627582434
 H          2.7418766008       -2.4302235325        2.0663622438
 H          2.1848426899       -4.0159230939        0.3792225435
 H          0.4314276392       -4.9171088807       -1.1055846991
 H         -1.7595311922       -3.8202290327       -1.2553112060
 C         -2.6069610047       -1.5714616575        0.1530649071
 H         -3.1345337448       -1.7574558739        1.1005042456
 C         -3.5023668143       -1.9828055860       -0.9968382841
 C         -4.4209991253       -3.1580714281       -0.8544921137
 C         -4.9799208707       -1.7679632961       -0.8740451134
 H         -5.5283730640       -1.4419295526       -1.7449144999
 H         -5.3434723971       -1.3471211815        0.0525394822
 H         -4.5909400857       -3.7877638675       -1.7147401287
 H         -4.4151779262       -3.6867043099        0.0868179307
 H         -3.0493053556       -1.7983472517       -1.9638470454
 O         -1.1330619026       -0.1925490454       -1.9097704268
