  62
        -98.93212334
 C         -1.5184383318       -1.2246315677        0.1392512764
 C         -2.6593450303       -0.9573802412        0.9392154080
 C         -3.4820804727        0.2157416567        0.5907697712
 C         -3.0938305256        0.9892709538       -0.4392745354
 C         -3.7702577966        2.2136362705       -0.9957724865
 C         -5.0056297037        1.8714494471       -1.8443576706
 C         -5.9223662513        0.8077954334       -1.2457794345
 H         -6.6925078124        0.5783450587       -1.9870816635
 H         -5.3506342099       -0.1073187226       -1.0806658898
 C         -6.6257763697        1.2079783669        0.0489945930
 H         -7.3094165663        0.3961041154        0.3105597562
 H         -7.2273615946        2.1016529146       -0.1318205948
 C         -5.7167548757        1.4688082831        1.2520011354
 H         -5.2417051855        2.4434982939        1.1807813905
 H         -6.3547912084        1.4993797681        2.1401121376
 C         -4.6699182091        0.3886041126        1.5060216923
 H         -4.2503607363        0.5380073900        2.5081616619
 H         -5.1656570180       -0.5881026039        1.5461622933
 H         -5.5717196121        2.7885665609       -2.0158932459
 H         -4.6585932785        1.5034365606       -2.8130828812
 H         -3.0405749164        2.7146439719       -1.6358862530
 H         -4.0297786928        2.8955530711       -0.1915081838
 O         -1.9830588971        0.7057097888       -1.1729935286
 C         -1.1822437172       -0.3993873370       -0.9339434540
 O         -0.2364127325       -0.5002492261       -1.7368228521
 O         -2.9909736038       -1.6806294533        1.9171408633
 C         -0.6753767038       -2.4306474315        0.5414793633
 C          0.7267516065       -1.9768388176        0.8567186017
 C          1.0344655858       -1.6632314405        2.1799541114
 C          2.2659110352       -1.1383071692        2.5252932477
 C          3.2212496252       -0.8906201487        1.5550566234
 C          2.9240451850       -1.1916014683        0.2337504913
 C          1.6995301675       -1.7512107407       -0.1054520629
 H          1.4980158463       -1.9496498641       -1.1433830780
 N          3.8577195696       -0.8878673307       -0.7752698154
 S          4.5206367115        0.6487113181       -0.7225538668
 O          4.8045852567        0.9967142583       -2.0976329908
 O          5.6613343305        0.6415722406        0.1616727032
 C          3.2621987645        1.7244292609       -0.0487906248
 C          3.5904926143        2.5581542327        1.0016278562
 C          2.6200906166        3.3974096326        1.5243207084
 C          1.3393846004        3.3853660016        0.9937328964
 C          1.0262027908        2.5431603441       -0.0614670074
 C          1.9936928639        1.7059824665       -0.5937775953
 H          1.7486215457        1.0386898508       -1.4053632749
 H          0.0293614108        2.5188062852       -0.4738813046
 H          0.5797929463        4.0325684427        1.4033090670
 H          2.8628512676        4.0533366917        2.3447674912
 H          4.5954790895        2.5270621224        1.3904018775
 H          3.5146369992       -1.0884646569       -1.7042346975
 H          4.1805706341       -0.4623095225        1.7970940949
 H          2.4808147060       -0.9072053990        3.5572570527
 H          0.2843622748       -1.8217682792        2.9417905835
 H         -1.1209955649       -2.7440416559        1.4978516616
 C         -0.8728841261       -3.6207720302       -0.3906701685
 C         -0.4587084640       -3.6868741904       -1.8296201127
 C          0.2331964569       -4.5409867986       -0.8109260761
 H          0.0378951069       -5.6030020469       -0.8190095219
 H          1.2410457636       -4.2829157041       -0.5250717515
 H         -1.1391038888       -4.1664344372       -2.5196447776
 H          0.0519015386       -2.8426077439       -2.2618018702
 H         -1.8260506979       -4.0974810374       -0.1759048970
