  62
        -98.93300256
 C         -1.7274062901       -0.7763721907       -0.9471354874
 C         -2.0311407088       -0.2778851909        0.3433234543
 C         -3.4643004884       -0.1645386380        0.6692047307
 C         -4.3809715888       -0.5637970832       -0.2298932696
 C         -5.8701197125       -0.4379421690       -0.0764308161
 C         -6.3062810136        1.0182088255       -0.3359668376
 C         -6.8860104979        1.7297627460        0.8866839799
 H         -6.9539666117        2.7925204395        0.6446654611
 H         -7.9010375267        1.3662195741        1.0605005784
 C         -6.0992496253        1.5641471997        2.1905160049
 H         -6.3291787537        0.5957047323        2.6373724474
 H         -6.4704031400        2.3219724472        2.8837994880
 C         -4.5754978505        1.7033828913        2.0777537968
 H         -4.2184660169        2.2431980646        2.9570927594
 H         -4.3076442925        2.3023901742        1.2071658564
 C         -3.8113772415        0.3666951562        2.0325939701
 H         -2.8477275150        0.4965342818        2.5342029782
 H         -4.3698260372       -0.3919898889        2.5879604041
 H         -5.4421222848        1.5738594559       -0.7060531817
 H         -7.0547466283        1.0377494006       -1.1296206332
 H         -6.3287805996       -1.1074902885       -0.8044510004
 H         -6.1650389302       -0.7542077396        0.9217041631
 O         -4.0482320349       -1.0766741333       -1.4436171142
 C         -2.7238541114       -1.2037528845       -1.8276810724
 O         -2.5645602335       -1.7120368397       -2.9555269171
 H          2.0797867151       -0.1024390559       -0.2664051066
 C          1.7253968750       -1.0399406048        0.1263808760
 C          0.5386678980       -1.5888459825       -0.3301485126
 C          0.1069901135       -2.7926262390        0.2228742492
 C          0.8333795810       -3.4147052747        1.2181410949
 C          2.0245583265       -2.8672774958        1.6635181179
 C          2.4712616572       -1.6758586817        1.1093982769
 N          3.6747864640       -1.0864240301        1.5287476441
 S          4.7258970619       -0.4996581970        0.3650167937
 O          4.6403410976       -1.2629420288       -0.8587857044
 O          6.0203880851       -0.4835145491        1.0133967370
 C          4.2115971051        1.1799514998        0.0770491976
 C          4.1178299400        1.6437938406       -1.2201564674
 C          3.7590013820        2.9651054856       -1.4361385150
 C          3.5028888392        3.7954368190       -0.3555244422
 C          3.6016781905        3.3137120139        0.9411146379
 C          3.9628129260        1.9946550974        1.1636248803
 H          4.0501574112        1.5865335850        2.1565427825
 H          3.3976264570        3.9619247179        1.7780171535
 H          3.2211795722        4.8226740436       -0.5259215280
 H          3.6788241678        3.3399495815       -2.4442894938
 H          4.3169392499        0.9607068606       -2.0307494530
 H          4.1667728270       -1.5954215903        2.2488069226
 H          2.5989605859       -3.3565046002        2.4358037196
 H          0.4770951820       -4.3402753159        1.6454038258
 H         -0.8183397952       -3.2273805556       -0.1319193589
 C         -0.2931826007       -0.9503551198       -1.4156114172
 H         -0.3534059472       -1.6702177714       -2.2495959676
 C          0.3331128387        0.3162286733       -1.9813229073
 C         -0.5124476118        1.4027030289       -2.5739387167
 C          0.2167280490        1.6389169830       -1.2871868260
 H          1.0727771593        2.2976745146       -1.2946296229
 H         -0.3492093755        1.6680406695       -0.3701063788
 H         -1.5850444205        1.2757800104       -2.5425680819
 H         -0.1583232470        1.8948831665       -3.4671769959
 H          1.2720832202        0.1105145180       -2.4874458869
 O         -1.1625245680        0.0570772222        1.1888700901
