  62
        -98.93293290
 C          2.1088139329        1.0076015591        0.3523271762
 C          2.7634763550        0.1026621759        1.2212490581
 C          3.2327093073       -1.1723747223        0.6454012425
 C          2.9608039970       -1.4340194932       -0.6464561933
 C          3.3515140248       -2.6403091149       -1.4586820590
 C          4.8334105902       -2.6293357729       -1.8659441456
 C          5.8024621358       -2.2441140793       -0.7514052192
 H          6.8015849981       -2.1774252908       -1.1897154655
 H          5.5445155251       -1.2504346621       -0.3808951879
 C          5.8697508811       -3.2217339897        0.4194675250
 H          6.1497465367       -4.2090927094        0.0460279731
 H          6.6681635826       -2.8783533276        1.0820893883
 C          4.5921688109       -3.3597361933        1.2507473515
 H          4.8615243097       -3.8723615387        2.1787732114
 H          3.8622065611       -3.9909233440        0.7508018146
 C          3.9506478394       -2.0362354078        1.6548234535
 H          3.2168760341       -2.2309798934        2.4463761693
 H          4.7090601802       -1.3955917294        2.1193158056
 H          5.0909408464       -3.6173129180       -2.2512876956
 H          4.9545074895       -1.9080964340       -2.6779364307
 H          3.1044659829       -3.5495427316       -0.9183852840
 H          2.7394440088       -2.6172080381       -2.3633706817
 O          2.2767771825       -0.5561238014       -1.4344720267
 C          1.8255656392        0.6678116562       -0.9714899434
 O          1.2041003135        1.3326079880       -1.8217566149
 H         -0.3544162346        0.6036413703        1.3949263002
 C         -0.7274781062        1.4803173302        0.8766901046
 C          0.1572891284        2.5039729983        0.5587293069
 C         -0.3342429024        3.6126296837       -0.1160171290
 C         -1.6697936589        3.6800852440       -0.4757494185
 C         -2.5407383735        2.6496575757       -0.1743855946
 C         -2.0591038594        1.5394583950        0.5048033661
 N         -2.9416931518        0.4669291362        0.7941138383
 S         -3.2989952378       -0.5249332640       -0.5316885478
 O         -2.3449444396       -1.6151860763       -0.5877607943
 O         -3.4291085538        0.2903961249       -1.7106420994
 C         -4.8978105906       -1.1523800317       -0.0536475780
 C         -5.0126421369       -2.4268438834        0.4652202238
 C         -6.2614847720       -2.8789305664        0.8627467161
 C         -7.3667096914       -2.0511842186        0.7391600385
 C         -7.2351834743       -0.7729789737        0.2166074755
 C         -5.9898208512       -0.3162895962       -0.1830468791
 H         -5.8401798861        0.6650198559       -0.6016216190
 H         -8.0971709913       -0.1327272500        0.1201708578
 H         -8.3369961515       -2.4051809721        1.0498270248
 H         -6.3663157038       -3.8728562385        1.2671891645
 H         -4.1270281000       -3.0376651289        0.5363928721
 H         -2.5582735416       -0.1360985164        1.5116063838
 H         -3.5743270173        2.6802755482       -0.4766291178
 H         -2.0334120146        4.5444029243       -1.0105660974
 H          0.3344579915        4.4119819567       -0.3903333316
 C          1.6040090589        2.3142230599        0.9401021666
 H          1.6495019812        2.1548635163        2.0310733751
 C          2.4782658927        3.5227107607        0.6448133661
 C          3.9416688704        3.3644941568        0.3627011002
 C          3.0133928210        3.8114883942       -0.7244872806
 H          3.0636228504        4.8411422563       -1.0474542046
 H          2.7666503826        3.1181657303       -1.5130106287
 H          4.6268059557        4.0838220637        0.7854731200
 H          4.3358086703        2.3595635690        0.3162347759
 H          2.1976325999        4.3806736761        1.2479521790
 O          2.9504899556        0.3441227613        2.4450975621
