  62
        -98.93586632
 C         -1.5172727982       -0.6583602209        0.0871427521
 C         -2.0229287197        0.5030035921        0.7230875226
 C         -3.2579806106        1.0659765482        0.1640813512
 C         -3.8125616286        0.4851765889       -0.9154743897
 C         -5.0988172909        0.9173694135       -1.5567410448
 C         -6.2978831857        0.1748890973       -0.9501720090
 C         -6.3229648239        0.1863066981        0.5782540319
 H         -5.4709570501       -0.3855849339        0.9526602850
 H         -7.2268931407       -0.3397247473        0.8926765365
 C         -6.3040775044        1.5884540285        1.2028397474
 H         -7.0479631827        1.6267766999        2.0013936347
 H         -6.5912107486        2.3305760361        0.4570549044
 C         -4.9640781358        1.9881384022        1.8234986661
 H         -4.6264800602        1.2028008354        2.5044874846
 H         -5.1202764428        2.8920972900        2.4183275703
 C         -3.8319500470        2.2840552294        0.8315263619
 H         -3.0071728172        2.7361010599        1.3907722725
 H         -4.1741475170        3.0057675584        0.0866102931
 H         -6.2653803059       -0.8646441360       -1.2842209189
 H         -7.2138948749        0.6272185478       -1.3344492104
 H         -5.0439016589        0.6915320660       -2.6230044206
 H         -5.2195747746        1.9914580500       -1.4291428690
 O         -3.2816078775       -0.6052924365       -1.5207762651
 C         -2.1293838166       -1.2151540721       -1.0366240665
 O         -1.7775078257       -2.2113872904       -1.6908380470
 O         -1.4660747336        1.0411898844        1.7191248528
 C         -0.2397306865       -1.2658715236        0.6532823758
 C          0.7979166336       -1.3470466993       -0.4375814369
 C          1.1280042587       -2.4662631110       -1.1925066555
 C          2.0866745946       -2.3856209845       -2.1884229554
 C          2.7522098765       -1.2027380761       -2.4492893257
 C          2.4188976695       -0.0697801502       -1.7168235462
 C          1.4466766784       -0.1509634462       -0.7333975683
 H          1.1744728970        0.7476201566       -0.1992283168
 N          3.0661045992        1.1559362752       -1.9409855456
 S          3.4517422357        2.1095686609       -0.6210509823
 O          2.3002128661        2.8630645250       -0.1929443484
 O          4.5866490776        2.8925875580       -1.0628927169
 C          3.9573464198        0.9546144797        0.6419009801
 C          5.0922783745        0.2027539948        0.4074696082
 C          5.4775169411       -0.7412300770        1.3447813900
 C          4.7217291183       -0.9203591667        2.4934971561
 C          3.5902329446       -0.1522246777        2.7183944387
 C          3.2014385459        0.7959889100        1.7851008388
 H          2.3236240718        1.4076800427        1.9248261177
 H          3.0013590373       -0.2906205798        3.6110316465
 H          5.0157954347       -1.6617216197        3.2194575485
 H          6.3602011307       -1.3364736173        1.1755273549
 H          5.6585400782        0.3749707194       -0.4933744765
 H          3.8221415268        1.1181629908       -2.6088084300
 H          3.5063554303       -1.1487997085       -3.2193343432
 H          2.3217364928       -3.2659586709       -2.7671809993
 H          0.6192703621       -3.4004382553       -1.0416317054
 H          0.1214453122       -0.4989413981        1.3575622492
 C         -0.5548080617       -2.4765214369        1.5210126344
 C         -0.9801771759       -3.8231192846        1.0217997870
 C          0.3504220109       -3.6580031219        1.6943949293
 H          0.4663833577       -4.0627738553        2.6888047208
 H          1.2449238590       -3.7046313323        1.0948693650
 H         -1.7664435698       -4.3284194278        1.5652366543
 H         -1.0365543720       -3.9790627111       -0.0428761879
 H         -1.0696682148       -2.1410153102        2.4187186914
