  62
        -98.94050415
 C          1.1421674790        1.1989206539        0.5176147867
 C          1.6520873093        0.7507191166       -0.7232836288
 C          2.4971995955       -0.4577496806       -0.6783612293
 C          2.6340823557       -1.1200293982        0.4826881852
 C          3.4880257987       -2.3276560918        0.7527463457
 C          4.8605298626       -1.9028822078        1.3024561164
 C          5.9105100587       -1.5892681568        0.2369584145
 H          6.7805479476       -1.1740811314        0.7509269224
 H          6.2266582878       -2.5195727391       -0.2397772064
 C          5.4689319381       -0.6076777446       -0.8522130545
 H          6.3683973789       -0.1865561790       -1.3057048922
 H          4.9179530096        0.2196723716       -0.4013760166
 C          4.6216599759       -1.2657918600       -1.9515922613
 H          5.0374067823       -1.0090860919       -2.9280558511
 H          4.7011202995       -2.3488609001       -1.8586232342
 C          3.1400928009       -0.8566619068       -1.9785197183
 H          3.0145058984        0.0147963350       -2.6285100808
 H          2.5585453757       -1.6669021599       -2.4296153156
 H          4.7104129991       -1.0282035344        1.9405985305
 H          5.2495623094       -2.7039592214        1.9342555039
 H          3.5991677573       -2.9351786670       -0.1404762877
 H          2.9728851223       -2.9109441708        1.5184590280
 O          2.0176667443       -0.7222004281        1.6292686552
 C          1.2849819936        0.4453707772        1.6835050177
 O          0.8050979945        0.7010509520        2.8081567390
 O          1.4387640253        1.3306595202       -1.8186564874
 C          0.3414480882        2.4883853145        0.6252597558
 C         -1.0280539311        2.2496717623        0.0386554692
 C         -1.4726330260        2.8056641669       -1.1524486426
 C         -2.7296319549        2.4924698273       -1.6443992936
 C         -3.5658191953        1.6274209355       -0.9621446894
 C         -3.1268109161        1.0659464067        0.2306505776
 C         -1.8700500536        1.3783696922        0.7210667675
 H         -1.5247019004        0.9355395183        1.6470173594
 N         -3.9646820078        0.1606729609        0.9243500752
 S         -4.1936896193       -1.3137417842        0.1631377331
 O         -4.9080902209       -1.0909136938       -1.0671549511
 O         -4.8402207287       -2.1635039526        1.1363752759
 C         -2.5515610498       -1.9177091941       -0.1838234686
 C         -1.8805576420       -1.4364432579       -1.2905066683
 C         -0.5858639796       -1.8677462735       -1.5274291369
 C          0.0098291584       -2.7723190663       -0.6623040733
 C         -0.6745946083       -3.2412434471        0.4479623591
 C         -1.9655761109       -2.8047090914        0.6965396489
 H         -2.5340722207       -3.1459654559        1.5470476704
 H         -0.2048664791       -3.9410270784        1.1204652204
 H          1.0146935831       -3.1131044732       -0.8537056273
 H         -0.0456375400       -1.4856169168       -2.3790049815
 H         -2.3758803794       -0.7428289323       -1.9500664856
 H         -3.6509078272       -0.0106224731        1.8702611852
 H         -4.5389114073        1.3603350856       -1.3410845950
 H         -3.0621876086        2.9289826889       -2.5739474254
 H         -0.8309120608        3.4729981151       -1.7031342552
 H          0.2113069361        2.6676850473        1.7019365011
 C          1.0774432435        3.6652418342        0.0238711512
 C          0.6678223209        5.0566194148        0.3991878855
 C          1.9638184284        4.4957785159        0.9005707581
 H          2.8858764750        4.8768137976        0.4878658417
 H          2.0336270792        4.2239524395        1.9441011636
 H          0.7000028954        5.8263315505       -0.3566366063
 H         -0.1435839728        5.1652467663        1.1030823537
 H          1.4105708173        3.4885612511       -0.9908069055
