  62
        -98.94555727
 C          1.9710990009        1.5157568905       -0.1060644303
 C          1.6846477505        0.2691358503       -0.7142354398
 C          2.8049370503       -0.6816688499       -0.7703571499
 C          4.0091267805       -0.3124986799       -0.2971447403
 C          5.2175384203       -1.2008854901       -0.2421038304
 C          5.2968266706       -1.9424802598        1.0998104298
 C          3.9905074706       -2.6251688894        1.5056010203
 H          4.1737371407       -3.1409900192        2.4507950504
 H          3.2332609208       -1.8616423993        1.6983978303
 C          3.4504170001       -3.6244153496        0.4732973308
 H          4.2461696299       -3.9104561400       -0.2155430494
 H          3.1345907401       -4.5295478594        0.9963730911
 C          2.2430791400       -3.1259276896       -0.3234053091
 H          1.8179247997       -3.9809784197       -0.8550742787
 H          1.4799264802       -2.7495308493        0.3622221711
 C          2.5300482199       -2.0350191100       -1.3625773494
 H          3.3508167397       -2.3481451703       -2.0108901696
 H          1.6312640298       -1.9124974000       -1.9736210092
 H          6.0940846404       -2.6854967899        1.0377281798
 H          5.5634956809       -1.2230916896        1.8776983295
 H          5.1765513300       -1.9147968604       -1.0622651602
 H          6.1076466504       -0.5799907503       -0.3570221908
 O          4.2536730608        0.9105996602        0.2406543893
 C          3.2384780910        1.8439818004        0.3729299693
 O          3.5837161314        2.9093998705        0.9236957689
 O          0.5578340503       -0.0346919696       -1.1825264295
 C          0.8645113411        2.5440235707        0.0504565698
 C         -0.2923126088        1.9063015411        0.7795876802
 C         -0.0515504986        1.3007703914        2.0104841703
 C         -1.0646925185        0.6578179318        2.6945457908
 C         -2.3428634987        0.6020020318        2.1658380312
 C         -2.5947099989        1.2086644616        0.9438011311
 C         -1.5764108390        1.8641802812        0.2628233006
 H         -1.7918019392        2.3269677310       -0.6873423595
 N         -3.8905296391        1.1525181216        0.3951375614
 S         -4.5924943094       -0.3605012283        0.2336602520
 O         -5.6532383496       -0.1787027984       -0.7321331577
 O         -4.9960470491       -0.8383097179        1.5324699723
 C         -3.3159483997       -1.4071141487       -0.4380404380
 C         -3.0074401301       -1.2782961891       -1.7772529181
 C         -1.9952321104       -2.0577379594       -2.3100225982
 C         -1.3082865103       -2.9438315993       -1.4963074781
 C         -1.6258116800       -3.0576559889       -0.1526882680
 C         -2.6382536397       -2.2809916886        0.3863627920
 H         -2.9180648194       -2.3427888283        1.4254063021
 H         -1.0853864599       -3.7465555788        0.4770085420
 H         -0.5183996805       -3.5486225796       -1.9127573882
 H         -1.7393372306       -1.9671084398       -3.3534490483
 H         -3.5706510301       -0.5850202192       -2.3815897982
 H         -3.9780078092        1.6633796714       -0.4720268187
 H         -3.1440780386        0.0943731421        2.6778885115
 H         -0.8590238584        0.1909109320        3.6461477209
 H          0.9501645815        1.3333755313        2.4183603401
 H          1.2746054914        3.3452017908        0.6816543994
 C          0.4978175408        3.1256655104       -1.2986776903
 C         -0.1134125590        4.4909957605       -1.3901806305
 C          1.3005146609        4.2706942801       -1.8354553908
 H          1.5194195706        4.2965890598       -2.8924487409
 H          2.1006426811        4.6486231501       -1.2157403112
 H         -0.8637145091        4.6735366004       -2.1449604404
 H         -0.2763789786        5.0287508108       -0.4683804206
 H          0.1754946305        2.3694585803       -2.0055793900
