  62
        -98.93950875
 C          1.9148990452        0.8885879723        0.2202512261
 C          2.3053808152       -0.1049753537        1.1519502556
 C          2.6416551506       -1.4193294748        0.5964563811
 C          2.4950556008       -1.6405620897       -0.7220745550
 C          2.7558115355       -2.9386488122       -1.4372525305
 C          4.2273903511       -3.1655902583       -1.8101636014
 C          5.1524446458       -3.4954492975       -0.6380378344
 H          4.7295211891       -4.3210386410       -0.0649584086
 H          6.0965079402       -3.8421082136       -1.0627279523
 C          5.4370141037       -2.3110189211        0.2960371568
 H          5.1681897023       -1.3789548097       -0.2065213437
 H          6.5071489820       -2.2630017205        0.5091090058
 C          4.7102109531       -2.3745246101        1.6395133697
 H          4.9538358017       -1.4715151364        2.2052347014
 H          5.0665083230       -3.2354233529        2.2093362301
 C          3.1823925119       -2.4630995017        1.5264134786
 H          2.8845749696       -3.4579298383        1.1948223212
 H          2.7509694622       -2.2811209709        2.5141209663
 H          4.5966302244       -2.2772218702       -2.3276073424
 H          4.2585663572       -3.9988601050       -2.5157945637
 H          2.1657662255       -2.9081049494       -2.3557976573
 H          2.3994959201       -3.7681958855       -0.8254943994
 O          2.0567089832       -0.6808670759       -1.5776244447
 C          1.7584280211        0.6017581531       -1.1368211065
 O          1.3754749615        1.3655806309       -2.0430296802
 O          2.3634492547        0.0975682787        2.3961250711
 C          1.5341939350        2.2533133935        0.7642336374
 C          0.1935061480        2.6746111669        0.2135146783
 C         -0.0737031250        3.9357245877       -0.3005168217
 C         -1.3386924733        4.2431734585       -0.7734354998
 C         -2.3527372325        3.3055614856       -0.7554096152
 C         -2.0913240709        2.0332049378       -0.2537891976
 C         -0.8358459960        1.7404186243        0.2472407584
 H         -0.6452771747        0.7560230176        0.6518919697
 N         -3.0856482582        1.0422751894       -0.2908235058
 S         -2.9124693222       -0.4178991420        0.5154683702
 O         -2.7739367263       -0.2046926405        1.9409999259
 O         -1.8737814270       -1.1893434948       -0.1216870468
 C         -4.5025629121       -1.1430487349        0.1634102818
 C         -5.4948594925       -1.1215607281        1.1248901876
 C         -6.7318558132       -1.6705208274        0.8243913158
 C         -6.9551031494       -2.2262600468       -0.4262042523
 C         -5.9489861299       -2.2415569440       -1.3811162902
 C         -4.7099737741       -1.6954947739       -1.0865448769
 H         -3.8944447783       -1.6924044830       -1.7912601286
 H         -6.1244341252       -2.6769249761       -2.3516289162
 H         -7.9179895833       -2.6534028906       -0.6576568861
 H         -7.5144899595       -1.6634026863        1.5656975661
 H         -5.2716854982       -0.6866948097        2.0857988022
 H         -4.0293991696        1.3998060157       -0.2636926391
 H         -3.3330535295        3.5430203341       -1.1382985588
 H         -1.5339649874        5.2283938306       -1.1690900007
 H          0.7088056814        4.6749279958       -0.3473541862
 H          1.4060313735        2.0826367283        1.8480006604
 C          2.6152840637        3.3149544108        0.6196646414
 C          4.0483146511        2.9383485247        0.3933643873
 C          3.2696161675        3.6093964394       -0.6958417211
 H          3.5045909517        4.6367225833       -0.9330047961
 H          2.9588776685        3.0213252920       -1.5448049805
 H          4.8131703862        3.5020042691        0.9064556154
 H          4.2783693873        1.8881091250        0.2843695913
 H          2.4457486380        4.1607857607        1.2789262878
