  62
        -98.93572391
 C         -2.2264868409       -0.2114188279        0.3843058506
 C         -3.3402533256       -0.7704816251       -0.2911288606
 C         -4.3992918811        0.1793408180       -0.6735858600
 C         -4.2453795763        1.4890941578       -0.4131100619
 C         -5.2622143744        2.5516184089       -0.7124950401
 C         -6.2054100035        2.7705566079        0.4787519178
 C         -6.7938869176        1.4785576542        1.0456845460
 H         -5.9889622754        0.8835906754        1.4834957682
 H         -7.4660973945        1.7575271406        1.8600200402
 C         -7.5561215019        0.6252833984        0.0222636121
 H         -7.8163195710        1.2327308462       -0.8452056317
 H         -8.4911417511        0.2886587286        0.4749463472
 C         -6.8093756242       -0.6266629205       -0.4417762151
 H         -6.4645712713       -1.1910639444        0.4282947201
 H         -7.5149512745       -1.2612173583       -0.9844991748
 C         -5.6091146421       -0.3840909576       -1.3654997781
 H         -5.2986178109       -1.3526825381       -1.7678850138
 H         -5.9087366756        0.2549113571       -2.1984211383
 H         -7.0133329101        3.4327314176        0.1622359363
 H         -5.6475478722        3.2705777749        1.2740196703
 H         -4.7330482870        3.4827947776       -0.9219055233
 H         -5.8328183188        2.2629426921       -1.5930534325
 O         -3.1464721173        1.9944286178        0.2058833961
 C         -2.1267725053        1.1606661185        0.6302860821
 O         -1.1954471351        1.7522374446        1.2154194419
 H          1.5902014908       -0.5044938755        1.0422682269
 C          1.3110643027       -0.8819338737        0.0698989501
 C         -0.0124755018       -1.2003270558       -0.1968554038
 C         -0.3497390066       -1.6620760581       -1.4658973684
 C          0.6208659859       -1.7965045396       -2.4411231525
 C          1.9388708380       -1.4705812880       -2.1739184294
 C          2.2875169690       -1.0132793709       -0.9083652698
 N          3.6282058092       -0.7198854481       -0.6021909987
 S          3.9679971535        0.5937891422        0.4046694758
 O          3.7211867112        0.2065945896        1.7705235916
 O          3.2829110649        1.7745167754       -0.0714726073
 C          5.7240501363        0.7446333680        0.1330261683
 C          6.1931483536        1.6733106522       -0.7766754125
 C          7.5581191626        1.7614783725       -1.0014218202
 C          8.4255961084        0.9220813231       -0.3187394703
 C          7.9398846926       -0.0044886034        0.5920744341
 C          6.5765276995       -0.0970136890        0.8223958761
 H          6.1535397653       -0.7940671635        1.5267153337
 H          8.6175784851       -0.6533481937        1.1229723107
 H          9.4872008366        0.9927137916       -0.4955219445
 H          7.9385799224        2.4832678353       -1.7061123701
 H          5.4816723081        2.3110507250       -1.2766271305
 H          4.2133860396       -0.6968698469       -1.4270765169
 H          2.6938916578       -1.5718025250       -2.9388563433
 H          0.3472590213       -2.1539901951       -3.4224621359
 H         -1.3774353374       -1.9169970715       -1.6747565678
 C         -1.0544785954       -1.0423575809        0.8809966372
 H         -0.5989748200       -0.4430821062        1.6865861414
 C         -1.4811037971       -2.3703943628        1.4941119566
 C         -1.1600576239       -3.7037144090        0.8958349426
 C         -0.4515727696       -3.2534990247        2.1354564954
 H         -0.6895889356       -3.7287773368        3.0750773473
 H          0.5817687691       -2.9523548795        2.0419937057
 H         -1.9083565340       -4.4772409268        0.9754925900
 H         -0.6044034533       -3.7291777164       -0.0278319285
 H         -2.4362982208       -2.2908247781        2.0031364498
 O         -3.4640062418       -1.9895412610       -0.5711117538
