  62
        -98.92966391
 C          2.1919313389        0.2731026594        0.5174034832
 C          3.3181682706        0.7923276822       -0.1634032339
 C          4.3992335429       -0.1650062139       -0.4894076165
 C          4.2461003971       -1.4608573565       -0.1639205597
 C          5.2127612063       -2.5967581707       -0.3695078692
 C          6.3696003342       -2.5804768906        0.6432107924
 C          6.9822761633       -1.2055905450        0.8974389753
 H          6.2020544294       -0.5248974142        1.2430279725
 H          7.7049386311       -1.3097918334        1.7111211472
 C          7.7071213253       -0.5852445689       -0.2945338491
 H          8.5147940197       -1.2506499257       -0.6075726590
 H          8.1603155276        0.3473110471        0.0512716631
 C          6.8396724968       -0.2677717643       -1.5141150261
 H          6.6154381171       -1.1676453128       -2.0802725421
 H          7.4300767449        0.3747275574       -2.1739004358
 C          5.5553342568        0.4944056989       -1.2031995218
 H          5.8013920246        1.3864541129       -0.6161233469
 H          5.1407717345        0.8759650111       -2.1439848497
 H          7.1424490397       -3.2680171431        0.2955428616
 H          5.9877765864       -2.9554172359        1.5960170809
 H          5.5881921723       -2.5871877014       -1.3883842986
 H          4.6439191459       -3.5191963388       -0.2331489430
 O          3.1313383961       -1.9214008658        0.4758348726
 C          2.0970565525       -1.0834011584        0.8357207134
 O          1.1598712669       -1.6522737427        1.4346224885
 O          3.4480319951        1.9986265807       -0.4941699955
 C          1.0078348788        1.1255950452        0.9426118155
 C         -0.0067324493        1.2249319204       -0.1678100160
 C          0.3606419519        1.6322778985       -1.4471597672
 C         -0.5843363415        1.7128212822       -2.4529329566
 C         -1.9060786432        1.3854715968       -2.2064673194
 C         -2.2845602806        0.9815633902       -0.9314406938
 C         -1.3340025470        0.9051371219        0.0777463022
 H         -1.6358951800        0.5687447577        1.0583424712
 N         -3.6302740568        0.6866812268       -0.6481907382
 S         -3.9807191624       -0.6008063243        0.3890247403
 O         -3.7668311507       -0.1729910339        1.7482753066
 O         -3.2752383241       -1.7882358894       -0.0383697522
 C         -5.7293130593       -0.7750051885        0.0850424956
 C         -6.1747549296       -1.7502002946       -0.7869593272
 C         -7.5342521075       -1.8565578163       -1.0359794202
 C         -8.4196668707       -0.9885956158       -0.4149256131
 C         -7.9575175129       -0.0150561191        0.4584266269
 C         -6.5998873576        0.0958099721        0.7129073757
 H         -6.1950782831        0.8294961573        1.3901358377
 H         -8.6491577357        0.6559898668        0.9416394932
 H         -9.4769370376       -1.0736673508       -0.6103255339
 H         -7.8964159370       -2.6148136472       -1.7113836189
 H         -5.4499661677       -2.4080563180       -1.2394116798
 H         -4.1930014735        0.6278126932       -1.4869276215
 H         -2.6410426809        1.4446113625       -2.9950218479
 H         -0.2876112594        2.0286543880       -3.4418389936
 H          1.3915485798        1.8873804485       -1.6394097015
 H          0.5342222881        0.5656914307        1.7659023482
 C          1.4169847679        2.4840714533        1.4982414377
 C          1.1014109699        3.7851531226        0.8300398640
 C          0.3712904527        3.3915599826        2.0763267373
 H          0.5889112836        3.9131199165        2.9961246470
 H         -0.6586243793        3.0804753626        1.9778331589
 H          1.8445494438        4.5656490849        0.8864967982
 H          0.5633724024        3.7632757454       -0.1040767162
 H          2.3626206092        2.4342997650        2.0282709454
