  62
        -98.94413882
 C         -2.1113029036        0.9324423830       -0.1430069535
 C         -2.4650863044       -0.3650685554        0.3003086101
 C         -3.7502136831       -0.8779842131       -0.1941384089
 C         -4.4889562136       -0.1398519406       -1.0416252018
 C         -5.8056520851       -0.5388695185       -1.6507374634
 C         -7.0182066366       -0.2711941781       -0.7486266466
 C         -7.1595062576       -1.2127661481        0.4480134210
 H         -8.1568223282       -1.0550940587        0.8634684902
 H         -7.1104626467       -2.2462396529        0.1034998825
 C         -6.1222034991       -0.9877906142        1.5569435453
 H         -5.6601239703       -0.0061536382        1.4296641202
 H         -6.6227377150       -0.9824333538        2.5278455032
 C         -5.0222096949       -2.0474998863        1.6207011841
 H         -4.3254052816       -1.7707241113        2.4159446372
 H         -5.4593433009       -3.0148285106        1.8784099851
 C         -4.2204632342       -2.2045581621        0.3219256875
 H         -4.8203433931       -2.7154291267       -0.4309914461
 H         -3.3362087232       -2.8105803996        0.5346639002
 H         -6.9700496732        0.7616392435       -0.3960283957
 H         -7.9126190521       -0.3692700850       -1.3681722578
 H         -5.7788595490       -1.5943904276       -1.9231293817
 H         -5.9176865222        0.0524469440       -2.5621129681
 O         -4.0968880975        1.0889092849       -1.4712399808
 C         -2.9143155792        1.6558138689       -1.0285107792
 O         -2.6887617895        2.7929514793       -1.4888738892
 O         -1.7596445396       -1.0677053918        1.0704926141
 C         -0.8112448646        1.5925017911        0.2907769659
 C          0.3334839613        0.8630967428       -0.3694051362
 C          0.6675178693        1.1786028871       -1.6836791810
 C          1.6777963065        0.4995351658       -2.3384786640
 C          2.3740878067       -0.5112503690       -1.6986586184
 C          2.0469759557       -0.8337626332       -0.3883743687
 C          1.0419956001       -0.1394352841        0.2739853909
 H          0.7862745670       -0.4136081375        1.2848159610
 N          2.7420366696       -1.8621360195        0.2658655363
 S          4.3997178283       -1.9549714468        0.0919370239
 O          4.7266619062       -2.5722957109       -1.1697572628
 O          4.8666215771       -2.6477696758        1.2722764183
 C          4.9647913021       -0.2621797145        0.0983417858
 C          5.6251083685        0.2495055502       -0.9998131367
 C          6.0311237609        1.5744600073       -0.9808964694
 C          5.7677877346        2.3612426663        0.1292952462
 C          5.1056855544        1.8316578336        1.2266041327
 C          4.6986134967        0.5077705870        1.2134528055
 H          4.1871521401        0.0645148278        2.0526074167
 H          4.9028872787        2.4455909183        2.0894140674
 H          6.0805723907        3.3934078094        0.1412397504
 H          6.5476759260        1.9883755478       -1.8318965875
 H          5.8081146301       -0.3967298849       -1.8428614162
 H          2.4459268961       -2.0236705170        1.2164476487
 H          3.1509034467       -1.0652155736       -2.2002022347
 H          1.9240633593        0.7546302777       -3.3579551761
 H          0.1117638302        1.9563124755       -2.1890300460
 H         -0.8427877051        2.6105409897       -0.1192381867
 C         -0.6951061217        1.6798705267        1.7982402240
 C          0.3292581018        2.5928170349        2.4001180795
 C         -1.1268004078        2.9351887523        2.4920899597
 H         -1.6186639984        2.8507111018        3.4497089963
 H         -1.5034349003        3.7412260114        1.8792323389
 H          0.8391279992        2.2773272055        3.2974937711
 H          0.9415485941        3.1670665973        1.7215891467
 H         -0.9017106812        0.7441251563        2.3019938718
