  62
        -98.93450501
 C         -1.8150035989        0.4805329222        0.9277653186
 C         -3.1760664951        0.8032492645        1.1493866903
 C         -4.1780377859       -0.0813295196        0.5287118296
 C         -3.7578184773       -1.1158046228       -0.2194394309
 C         -4.6014074611       -2.1062204366       -0.9733970627
 C         -4.8006469871       -1.6541927048       -2.4299161624
 C         -5.9888864297       -0.7205857420       -2.6575173020
 H         -5.9377142530       -0.3756949843       -3.6928999683
 H         -6.9163277594       -1.2864510259       -2.5467703876
 C         -6.0479746871        0.4999045090       -1.7350852926
 H         -5.0513126149        0.9340030786       -1.6354689250
 H         -6.6797711906        1.2509676071       -2.2133582486
 C         -6.6208249343        0.1801960348       -0.3461515949
 H         -7.4227189426        0.8845939965       -0.1151836129
 H         -7.0767266102       -0.8094987241       -0.3680317270
 C         -5.6153374180        0.2605443882        0.8117819533
 H         -5.9690779592       -0.3697008901        1.6348573492
 H         -5.5848589657        1.2851613690        1.1961158022
 H         -3.8796677310       -1.1652706747       -2.7582788097
 H         -4.9410492185       -2.5380695024       -3.0555062850
 H         -5.5539852354       -2.2605503189       -0.4753909053
 H         -4.0483888251       -3.0478942343       -0.9750969278
 O         -2.4397204307       -1.3701899846       -0.4381640342
 C         -1.4365387399       -0.5847119879        0.1099396793
 O         -0.2885050525       -0.9412493678       -0.2075275616
 O         -3.5404541011        1.7985173955        1.8319454432
 C         -0.7658289851        1.3786700337        1.5577183380
 C          0.2912839309        1.7391809030        0.5438335936
 C         -0.1104408809        2.3133851128       -0.6600828170
 C          0.8109417553        2.6354971022       -1.6368447870
 C          2.1611672106        2.4104068679       -1.4298267483
 C          2.5745383773        1.8506167731       -0.2299557925
 C          1.6442869800        1.5207984141        0.7496120294
 H          1.9863481470        1.0666232849        1.6665163405
 N          3.9526426948        1.6423209064       -0.0097733899
 S          4.7649440005        0.5167137980       -0.9458389209
 O          6.1679480767        0.7004780490       -0.6488313816
 O          4.3764557296        0.6831498568       -2.3224771381
 C          4.2431862411       -1.0762772990       -0.3319275639
 C          5.1553079891       -1.8706610847        0.3362032782
 C          4.7377455997       -3.0891650635        0.8459163913
 C          3.4177309858       -3.4863922125        0.6907583386
 C          2.5146732505       -2.6750326872        0.0221078798
 C          2.9275493023       -1.4588851368       -0.4986199763
 H          2.2272152877       -0.8181475432       -1.0096609604
 H          1.4803237684       -2.9574554658       -0.0926365048
 H          3.0895695335       -4.4316667869        1.0940619455
 H          5.4388321417       -3.7225013737        1.3655414534
 H          6.1689576387       -1.5181029458        0.4385457902
 H          4.1848587552        1.4882540049        0.9618245265
 H          2.8926835019        2.6412311122       -2.1864928248
 H          0.4784685175        3.0697380200       -2.5679777750
 H         -1.1648313057        2.4909426688       -0.8259905226
 H         -1.3154905915        2.3005548860        1.8125445996
 C         -0.1938670192        0.8420742913        2.8621865100
 C         -0.9507771869       -0.1479797821        3.6945720984
 C          0.3047032613       -0.5656599003        2.9924181578
 H          1.1877471458       -0.7465518525        3.5882364735
 H          0.2245632596       -1.2028816639        2.1260685032
 H         -0.9295122738       -0.0348370635        4.7681731960
 H         -1.8953832863       -0.5076015604        3.3131788501
 H          0.3515679320        1.6050169762        3.4096190728
