  62
        -98.94039623
 C         -1.5316078089       -1.4530527510       -0.0403721147
 C         -2.5972277302       -0.9719494976        0.7508630517
 C         -3.2853702139        0.2396346766        0.2656731713
 C         -2.8525855729        0.8170989659       -0.8708794183
 C         -3.3753754979        2.0833022871       -1.4924289597
 C         -2.8667286060        3.3553367172       -0.7806820211
 C         -2.6534272262        3.2199398007        0.7269466922
 H         -2.0786925658        4.0865027300        1.0655358095
 H         -2.0454258410        2.3346738431        0.9260724562
 C         -3.9344032988        3.1587716632        1.5577729578
 H         -4.4234457397        4.1355742424        1.5219224991
 H         -3.6526705488        2.9670993124        2.5964744411
 C         -4.9548094339        2.1087193641        1.1239331694
 H         -5.3699144093        2.3724321302        0.1547791945
 H         -5.7827428284        2.1424202508        1.8385216001
 C         -4.4512845572        0.6661615520        1.1230695764
 H         -5.2906074781        0.0117027707        0.8555995176
 H         -4.1740486898        0.3868415221        2.1457347825
 H         -3.5650879349        4.1701223164       -0.9760793311
 H         -1.9051745780        3.6292338623       -1.2199004119
 H         -4.4616708851        2.0502680389       -1.5090657879
 H         -3.0290376928        2.0981709379       -2.5276046342
 O         -1.8092763657        0.3271925834       -1.5952626647
 C         -1.1274792344       -0.8154982397       -1.2140982626
 O         -0.2072680891       -1.1513194307       -1.9791687000
 O         -2.9523536530       -1.5198637128        1.8313337579
 C         -0.7627699447       -2.6805444161        0.4129474789
 C          0.6983018767       -2.3338169422        0.5602767919
 C          1.7293394852       -3.1222886040        0.0680791159
 C          3.0475658963       -2.7203287340        0.2046014754
 C          3.3670525109       -1.5304980364        0.8316772550
 C          2.3431246377       -0.7404029281        1.3384373797
 C          1.0262981699       -1.1490531317        1.2085585508
 H          0.2317557771       -0.5272056386        1.6034007234
 N          2.6530168498        0.4857524385        1.9646348199
 S          3.4907709301        1.5920883678        1.0211402403
 O          4.8718129470        1.1879964963        0.9426990341
 O          3.2398395463        2.8788078558        1.6314687460
 C          2.7319381367        1.5017352667       -0.5884918639
 C          1.5161525229        2.1287236739       -0.7757310258
 C          0.8916571354        2.0222095433       -2.0065081956
 C          1.4795179882        1.2793525847       -3.0175945179
 C          2.6976970907        0.6528860194       -2.8122199603
 C          3.3334448385        0.7633747706       -1.5866269765
 H          4.2831213408        0.2943684076       -1.3880387716
 H          3.1476777094        0.0703325774       -3.5996825297
 H          0.9779862907        1.1816561085       -3.9670087980
 H         -0.0611712288        2.4991300844       -2.1706547291
 H          1.0855256876        2.6961776049        0.0350948236
 H          1.8435915102        0.9361730120        2.3681700054
 H          4.3863769921       -1.1939485516        0.9307122808
 H          3.8375927423       -3.3408984559       -0.1898876491
 H          1.5017113056       -4.0481571755       -0.4337888700
 H         -1.1629676120       -2.9313834544        1.4067211992
 C         -1.0190284266       -3.8427766215       -0.5229929349
 C         -0.9616345864       -5.2514138752       -0.0142715234
 C         -2.2814614652       -4.6337803754       -0.3631955550
 H         -2.7939365048       -4.9733139430       -1.2507645106
 H         -2.9446498678       -4.3505427800        0.4412540221
 H         -0.5698316081       -6.0194076787       -0.6639944050
 H         -0.7317624664       -5.3976863060        1.0303310021
 H         -0.6758045207       -3.6457607051       -1.5323418589
