  62
        -98.94291108
 C          2.3372515538        0.9103906585        0.4024161257
 C          2.5220381263       -0.1578305972       -0.5083750048
 C          3.5027423287       -1.1804338818       -0.1109437631
 C          4.1303715835       -1.0773509394        1.0738706014
 C          5.1798154815       -2.0234421236        1.5789277204
 C          6.5865488389       -1.5588792432        1.1766716943
 C          6.7195463819       -1.2041316287       -0.3043316914
 H          6.1077746748       -0.3243294649       -0.5167412749
 H          7.7598948870       -0.9213373794       -0.4789120732
 C          6.3293630696       -2.3355278053       -1.2656079425
 H          6.3311088391       -3.2889772817       -0.7361449866
 H          7.0828210699       -2.4010425507       -2.0534173550
 C          4.9785099216       -2.1429425284       -1.9573784737
 H          4.9383359372       -1.1499718678       -2.4123853329
 H          4.9032511322       -2.8757711241       -2.7653321267
 C          3.7413370086       -2.3157041569       -1.0670965877
 H          2.8645280106       -2.3480766404       -1.7204913477
 H          3.8036474156       -3.2645939988       -0.5305662150
 H          7.2961071627       -2.3490704134        1.4286270024
 H          6.8402735656       -0.6737943026        1.7645750974
 H          5.1154910679       -2.0571335444        2.6677653505
 H          4.9870326612       -3.0183044519        1.1823113754
 O          3.9071868444       -0.0550725073        1.9371108102
 C          3.0259375711        0.9619903286        1.6200970968
 O          2.9407284724        1.8504574432        2.4908539803
 H         -0.1481066721        0.2151893506       -1.0778741869
 C         -0.6876710917        0.7273519635       -0.2948667815
 C         -0.0405097575        1.7060786391        0.4456296499
 C         -0.7453821368        2.3495188010        1.4561750343
 C         -2.0628015799        2.0165250798        1.7174613923
 C         -2.7017809317        1.0342798298        0.9821263048
 C         -2.0062373079        0.3846122080       -0.0291875417
 N         -2.6311817254       -0.6365552319       -0.7636145724
 S         -4.1714858659       -0.3766109559       -1.3715509298
 O         -4.3007928237       -1.2922877864       -2.4838590516
 O         -4.4014235742        1.0201004379       -1.6606750646
 C         -5.2456558328       -0.9114771947       -0.0554302359
 C         -6.2378244831       -0.0706246921        0.4094117783
 C         -7.0693434764       -0.5130346832        1.4266138474
 C         -6.8957777434       -1.7821403806        1.9569813381
 C         -5.8965155768       -2.6157085684        1.4768248802
 C         -5.0627228697       -2.1798803443        0.4595223626
 H         -4.2765383863       -2.7970857850        0.0574670831
 H         -5.7643207838       -3.6019769213        1.8918293339
 H         -7.5428782298       -2.1240814945        2.7492306138
 H         -7.8470322215        0.1330980122        1.8009350700
 H         -6.3316933135        0.9101096347       -0.0291499008
 H         -2.0303738191       -1.0582324717       -1.4572159221
 H         -3.7271355807        0.7700143304        1.1828779960
 H         -2.5979022809        2.5247109028        2.5051213570
 H         -0.2488767736        3.1071446777        2.0449848582
 C          1.3935781477        2.0769723313        0.1490283144
 H          1.6898648149        2.8537117683        0.8665734667
 C          1.5233569988        2.6491575743       -1.2500262548
 C          1.0772498977        4.0564532977       -1.5023440928
 C          2.5376639299        3.7192547114       -1.5129427298
 H          3.0611669286        3.7125712072       -2.4572581564
 H          3.1429969183        4.0489547558       -0.6808018140
 H          0.5932435727        4.2827200658       -2.4401409622
 H          0.6929142086        4.6172654916       -0.6637811228
 H          1.3569891828        1.9205408774       -2.0324659505
 O          1.9118963621       -0.2793258081       -1.6057811890
