  62
        -98.93691105
 C          0.8385601303        1.7380811399       -0.3452581197
 C          1.2075729404        0.3944352899       -0.5991936501
 C          2.3668507903       -0.1156099103        0.1600465299
 C          2.9396218301        0.6523870895        1.1000024002
 C          4.0708147900        0.3082197292        2.0373377103
 C          5.2723547701       -0.4479621106        1.4537165502
 C          5.6046471203       -0.1095650402       -0.0068683596
 H          5.0471604203        0.7746242299       -0.3206277794
 H          6.6668236703        0.1309083498       -0.0816983094
 C          5.3148286204       -1.2649760399       -0.9678139900
 H          5.8928450106       -1.1131664197       -1.8825925999
 H          5.6629065404       -2.1941181000       -0.5114041002
 C          3.8514434005       -1.4256783498       -1.3779633302
 H          3.7671738106       -2.3421280397       -1.9664825205
 H          3.5571293306       -0.5979277296       -2.0285985800
 C          2.8397226103       -1.4889344002       -0.2214683404
 H          1.9527210704       -2.0179008401       -0.5788778306
 H          3.2461255102       -2.0261946004        0.6324167795
 H          5.1040907501       -1.5204981906        1.5409090399
 H          6.1296483700       -0.2125383208        2.0868278404
 H          3.6536964299       -0.2657796110        2.8705916001
 H          4.4037142499        1.2666073491        2.4436363406
 O          2.5061494501        1.9187265294        1.3633484705
 C          1.4699135102        2.4889341796        0.6472819805
 O          1.2080031401        3.6648124595        0.9774616008
 O          0.6163119405       -0.3629206198       -1.4089316104
 C         -0.3070248196        2.4435018700       -1.0552290997
 C         -1.5871277297        2.2412565698       -0.2868704799
 C         -2.4247373097        3.3055423597        0.0239803502
 C         -3.5795217298        3.0967996195        0.7578370200
 C         -3.9116057199        1.8306463794        1.2054506896
 C         -3.0792204898        0.7600400595        0.8977973694
 C         -1.9367448397        0.9686807097        0.1414607497
 H         -1.2952889197        0.1352118698       -0.0928436205
 N         -3.3854335599       -0.5423019307        1.3145074890
 S         -2.1612435999       -1.6339584207        1.6447556189
 O         -2.7959265300       -2.6351814610        2.4798705385
 O         -1.0041257700       -0.9887773409        2.2243308892
 C         -1.7571846697       -2.3854019803        0.0828921487
 C         -0.5872411397       -3.1138363703        0.0160076987
 C         -0.2591285495       -3.7519739099       -1.1687330414
 C         -1.1018560394       -3.6471310896       -2.2633021015
 C         -2.2738835094       -2.9132911697       -2.1792335915
 C         -2.6120135995       -2.2792535500       -0.9945627513
 H         -3.5138756296       -1.6966416400       -0.9027297713
 H         -2.9247419093       -2.8273195294       -3.0346362015
 H         -0.8394040692       -4.1358536694       -3.1883551516
 H          0.6547534405       -4.3211495999       -1.2352447115
 H          0.0477778402       -3.1535190205        0.8876436788
 H         -4.1628620500       -0.6307497808        1.9517139289
 H         -4.8024253800        1.6704476092        1.7933097895
 H         -4.2215409299        3.9310071794        0.9967487802
 H         -2.1552851097        4.3020516298       -0.2939838594
 H         -0.0613151396        3.5170080700       -1.0093212094
 C         -0.4297892694        2.0684968405       -2.5252959898
 C         -1.5073646293        1.1828954806       -3.0663282102
 C         -1.5347445693        2.6516644107       -3.3562605998
 H         -1.3062670891        2.9896193810       -4.3556730497
 H         -2.2767708894        3.2473776705       -2.8461699697
 H         -1.2375090392        0.4978850108       -3.8548841904
 H         -2.2316370394        0.7829539004       -2.3747322804
 H          0.5429652007        1.9842952106       -2.9989771597
