  62
        -98.93843264
 C          1.5462327001        0.9554237698        0.9023816599
 C          2.1801192400        0.4106661398       -0.2400176101
 C          2.5840699200       -1.0085063702       -0.1588835501
 C          2.2380309402       -1.7270933202        0.9212851000
 C          2.4601045902       -3.1929605601        1.1777034300
 C          1.2733703601       -4.0245071602        0.6595520503
 C          1.4068659299       -4.5011565503       -0.7846353797
 H          2.2137083099       -5.2349917903       -0.8507676698
 H          0.4749176299       -5.0075478303       -1.0470132095
 C          1.6591987397       -3.3896712603       -1.8055965398
 H          1.0032292998       -2.5428763003       -1.5906991098
 H          1.3754309596       -3.7688558604       -2.7899374198
 C          3.1242461597       -2.9319549503       -1.8506914001
 H          3.7410324798       -3.6411308903       -1.2985450102
 H          3.4779699095       -2.9537880604       -2.8841680802
 C          3.3760104498       -1.5112077103       -1.3355334002
 H          4.4417771498       -1.4029927403       -1.1014779104
 H          3.1592881297       -0.7970181703       -2.1368228802
 H          0.3663996701       -3.4204837602        0.7513351804
 H          1.1521653702       -4.9020015901        1.2984904503
 H          3.3949389401       -3.5271401702        0.7376113099
 H          2.5224228304       -3.3097451401        2.2619086700
 O          1.5448406003       -1.1862903401        1.9628222501
 C          1.1880509003        0.1492941799        1.9836031900
 O          0.5543300105        0.4916979600        3.0027968101
 H         -1.0262003900        0.9602754598        0.2125200004
 C         -0.8242694201        1.7143387297       -0.5334832997
 C          0.2192795299        2.6063909298       -0.3189011700
 C          0.4666649098        3.5834129897       -1.2716359400
 C         -0.2953766504        3.6312066596       -2.4272999399
 C         -1.2891492805        2.6998638896       -2.6664689197
 C         -1.5499263303        1.7232775297       -1.7104803496
 N         -2.5434717903        0.7533793197       -1.9060310494
 S         -2.3929328802       -0.7663673203       -1.2189561393
 O         -1.0197161002       -1.1978491803       -1.1154942095
 O         -3.2619946403       -1.6022988904       -2.0218967891
 C         -3.1237836799       -0.5703205102        0.3923006108
 C         -4.4146993299       -0.0835863102        0.4618862510
 C         -5.0032688397        0.0794734298        1.7050177711
 C         -4.2946381895       -0.2434250901        2.8530492210
 C         -3.0020220195       -0.7362839301        2.7673592008
 C         -2.4109897197       -0.9053319701        1.5252048707
 H         -1.4009573198       -1.2744730501        1.4256339105
 H         -2.4391160294       -0.9777774100        3.6549003907
 H         -4.7496589994       -0.1103883100        3.8218655810
 H         -6.0090296397        0.4609341898        1.7770900412
 H         -4.9305856901        0.1536509197       -0.4534224390
 H         -2.9372795405        0.7190167696       -2.8345535593
 H         -1.8516973206        2.7175114896       -3.5875243896
 H         -0.0918902505        4.3896422996       -3.1682239300
 H          1.2742068198        4.2825397097       -1.1284607502
 C          1.0352037001        2.3891527398        0.9314235099
 H          0.3455589903        2.4199806999        1.7915654700
 C          2.0866694102        3.4558612199        1.1857868297
 C          3.3307183603        3.1360984399        1.9590051295
 C          3.4190594801        3.4705565698        0.5017164295
 H          3.8367563800        4.4273834398        0.2234350393
 H          3.6304707500        2.6801497898       -0.1997539405
 H          3.6897183304        3.8564546400        2.6787127894
 H          3.4798795804        2.1076879899        2.2559528495
 H          1.6345947802        4.4228838099        1.3851434097
 O          2.4136907298        1.0670636697       -1.2881082402
