  62
        -98.93724972
 C          1.8093919681        1.1967689709        0.3705475226
 C          2.1043661916        0.1948386007       -0.5831691902
 C          3.5252056444        0.0395649296       -0.9441372549
 C          4.4436441486        0.8406758631       -0.3775159205
 C          5.9305071838        0.8864264340       -0.6270688226
 C          6.6731922686       -0.4531670593       -0.7294190853
 C          6.1020254814       -1.5817657445        0.1413086773
 H          6.9125514434       -2.0272260858        0.7211527228
 H          5.3773440357       -1.1784923983        0.8506512085
 C          5.4459458637       -2.6951214505       -0.6790713136
 H          6.0795700502       -2.9145340456       -1.5412482681
 H          5.3994783557       -3.6005452176       -0.0691838742
 C          4.0259595348       -2.4048536174       -1.1643682608
 H          3.3336409719       -2.4120590100       -0.3176268407
 H          3.7233522715       -3.2186501413       -1.8281703359
 C          3.8390357217       -1.0706431264       -1.9050938955
 H          4.7027757748       -0.8384071342       -2.5235566948
 H          2.9620253496       -1.1671828476       -2.5512693204
 H          6.6908268176       -0.7819793448       -1.7675584227
 H          7.7087574339       -0.2619714917       -0.4431584304
 H          6.1039164690        1.4619553172       -1.5409148653
 H          6.3390391165        1.4688822106        0.2021209361
 O          4.1109762934        1.7991095858        0.5333797933
 C          2.8015023517        1.9956408386        0.9358905898
 O          2.6534297455        2.8927698435        1.7903052612
 H         -2.0398934814        0.2150018597        0.2223095441
 C         -1.4621682911       -0.3207251637        0.9562734951
 C         -0.2191985201        0.1500193747        1.3497043555
 C          0.4950620156       -0.5698876739        2.3046573167
 C         -0.0125773554       -1.7397866245        2.8336303997
 C         -1.2450576125       -2.2169848776        2.4228266058
 C         -1.9723774314       -1.5018303105        1.4798166735
 N         -3.2459217303       -1.9361285748        1.0872576815
 S         -3.7750184978       -1.7783716171       -0.4925863523
 O         -4.8936158355       -2.6951054224       -0.5779204860
 O         -2.7160945808       -1.9841445906       -1.4510681214
 C         -4.4005338514       -0.1151239419       -0.5977894749
 C         -5.2094781440        0.3572793814        0.4168724231
 C         -5.7362807423        1.6345355950        0.3119911952
 C         -5.4553725887        2.4100919402       -0.8027419912
 C         -4.6443671929        1.9194622078       -1.8148149541
 C         -4.1101287598        0.6440260608       -1.7136990377
 H         -3.4640262825        0.2268553252       -2.4702800633
 H         -4.4258566478        2.5230753246       -2.6817644615
 H         -5.8676067941        3.4035296942       -0.8835327337
 H         -6.3655718031        2.0211149395        1.0972482494
 H         -5.4095956221       -0.2756913147        1.2649584330
 H         -3.5338957075       -2.8187295589        1.4841209665
 H         -1.6404711577       -3.1355903147        2.8291812160
 H          0.5565743832       -2.2896656263        3.5682953775
 H          1.4610255904       -0.1991205284        2.6212672113
 C          0.3757514491        1.4283928314        0.8119261874
 H          0.4300774788        2.1510708410        1.6397990849
 C         -0.4285708456        2.0441718858       -0.3137911480
 C         -1.5704587913        2.9627113225       -0.0009589967
 C         -0.2989895315        3.5145439808       -0.5702654702
 H         -0.2965768410        3.8606633652       -1.5928584061
 H          0.3577858808        4.0730411696        0.0809994616
 H         -2.4459747241        2.9320119934       -0.6314460376
 H         -1.7829229411        3.1543872824        1.0398166059
 H         -0.5121865693        1.3895974027       -1.1745718494
 O          1.2269784332       -0.5324026269       -1.1173364428
