  62
        -98.94132753
 C          1.5744336631        0.6145762584        0.9394150597
 C          2.8170318926        1.0995127838        0.4639923725
 C          3.8989118527        0.1059498146        0.3700410769
 C          3.6603857251       -1.1733500341        0.7086417866
 C          4.6543688882       -2.2922257291        0.5976769763
 C          4.5621941540       -2.9852189209       -0.7690549705
 C          4.5687953463       -2.0192671242       -1.9539406020
 H          4.5312298116       -2.6214215286       -2.8643761656
 H          3.6571825511       -1.4175582340       -1.9292236112
 C          5.7880531126       -1.0882279108       -2.0076274758
 H          6.1638472849       -1.0617599881       -3.0327158539
 H          6.5866599537       -1.4864986292       -1.3805856323
 C          5.4995712173        0.3582720284       -1.6019617112
 H          4.6395567564        0.7321236027       -2.1633642580
 H          6.3629651851        0.9681793454       -1.8812484430
 C          5.2381683577        0.5922154155       -0.1088280076
 H          6.0426246858        0.1469741932        0.4800577924
 H          5.2438770940        1.6725517836        0.0627389933
 H          3.6348104577       -3.5614277891       -0.8032244764
 H          5.3984830891       -3.6808033466       -0.8600589765
 H          4.4395785667       -3.0217879503        1.3802817307
 H          5.6569006482       -1.8968244826        0.7490570978
 O          2.4521248077       -1.6054598329        1.1507013754
 C          1.3857898992       -0.7316544840        1.2700820040
 O          0.3355698966       -1.2621272982        1.6827090674
 O          3.0394343774        2.2937146870        0.1319026298
 C          0.3446455781        1.4954894655        1.0975553129
 C         -0.3425004963        1.6660847251       -0.2360627122
 C          0.1865675440        2.4705502069       -1.2397632650
 C         -0.4701735440        2.5938051867       -2.4504361677
 C         -1.6653906008        1.9342263502       -2.6782657969
 C         -2.1967824000        1.1195327973       -1.6849708799
 C         -1.5271790243        0.9852415871       -0.4772163373
 H         -1.9327777772        0.3413016639        0.2878485150
 N         -3.3886094445        0.4154194540       -1.8966305057
 S         -4.4476756289        0.1064147396       -0.6416451562
 O         -5.7038053260       -0.1807979558       -1.3013930226
 O         -4.4698187961        1.1872830333        0.3162722655
 C         -3.8333155531       -1.3852417136        0.1082355556
 C         -3.6363184412       -1.4360445432        1.4732602929
 C         -3.1721694274       -2.6112952345        2.0410944538
 C         -2.9172753256       -3.7105759231        1.2370801889
 C         -3.1247242021       -3.6452959863       -0.1323359215
 C         -3.5878469594       -2.4726998079       -0.7059243032
 H         -3.7611472497       -2.3841619021       -1.7656271451
 H         -2.9228136939       -4.5034238384       -0.7532718881
 H         -2.5504992911       -4.6222053508        1.6817728552
 H         -3.0031363311       -2.6617143227        3.1046629666
 H         -3.8391628258       -0.5551092604        2.0624520037
 H         -3.8642683547        0.6184716605       -2.7631019998
 H         -2.1817250346        2.0425504091       -3.6200933799
 H         -0.0514439486        3.2189428570       -3.2248355055
 H          1.1230483091        2.9782194056       -1.0692202029
 H         -0.3394703450        0.9328490415        1.7474569915
 C          0.6307706730        2.8305779995        1.7552525334
 C         -0.5196400383        3.6157190126        2.3073186371
 C          0.4605373972        2.9663983812        3.2368596927
 H          1.1511119665        3.5946171511        3.7792835527
 H          0.1403452219        2.0932927519        3.7870459986
 H         -0.5030168794        4.6906189740        2.2118084606
 H         -1.5063708450        3.1838638834        2.2216663489
 H          1.4425869364        3.3785270412        1.2967672737
