  62
        -98.93574711
 C         -2.2313236895        0.8013949917       -0.0572319012
 C         -3.4190175891        0.9993780822       -0.8054591584
 C         -4.3950408533       -0.1063912794       -0.8406051049
 C         -4.0889156386       -1.2550187976       -0.2102162278
 C         -4.9260347092       -2.4993443003       -0.0768320927
 C         -6.0595777263       -2.3439064553        0.9498236546
 C         -6.8284317932       -1.0279707563        0.8643581336
 H         -7.5266774212       -0.9968953273        1.7049566221
 H         -6.1318074152       -0.1974357644        0.9921498788
 C         -7.6317140072       -0.8250639983       -0.4181512611
 H         -8.3493247883       -1.6416669504       -0.5238774702
 H         -8.1988278529        0.1020248694       -0.3017273266
 C         -6.8170351359       -0.7230718775       -1.7095143494
 H         -7.4842833067       -0.3356543664       -2.4849545854
 H         -6.4897527833       -1.7030370963       -2.0464165883
 C         -5.6302334489        0.2326586201       -1.6400359807
 H         -5.2755904597        0.4233645253       -2.6601086176
 H         -5.9739530360        1.2053918916       -1.2700060757
 H         -6.7500269371       -3.1804641307        0.8298500977
 H         -5.6211841194       -2.4092365086        1.9488163851
 H         -5.3187139922       -2.7909765415       -1.0464415825
 H         -4.2554553185       -3.2922749838        0.2621533284
 O         -2.9140531092       -1.4200175780        0.4602011271
 C         -1.9610432879       -0.4190296216        0.5634274000
 O         -0.9578637115       -0.7527365038        1.2225629331
 H          0.8820151269        1.2495059916        1.5600687648
 C          1.0974369397        1.1298168373        0.5097640617
 C          0.1296170581        1.4496832391       -0.4282750141
 C          0.4143602187        1.2514267072       -1.7760309882
 C          1.6408683472        0.7519675246       -2.1710530575
 C          2.6042470438        0.4296454168       -1.2308905883
 C          2.3208779381        0.6024620155        0.1168054178
 N          3.2851203314        0.2706901848        1.0818181791
 S          4.1836187149       -1.1331573099        0.8990665913
 O          3.4662796022       -2.1569579460        0.1757225586
 O          4.6202370498       -1.4739161642        2.2360208756
 C          5.5977810026       -0.5969452467       -0.0448224592
 C          5.9656994417       -1.2832169817       -1.1854545098
 C          7.0752553166       -0.8552518658       -1.8979968539
 C          7.7950136573        0.2450970501       -1.4587184674
 C          7.4148131722        0.9217600225       -0.3092856970
 C          6.3072816284        0.4983474552        0.4076771705
 H          5.9811237168        0.9946443693        1.3062388902
 H          7.9768537592        1.7771683707        0.0293855434
 H          8.6571677075        0.5769131512       -2.0154415197
 H          7.3720521187       -1.3810730014       -2.7912709220
 H          5.3730483171       -2.1306440624       -1.4922291757
 H          2.9513807172        0.3607349353        2.0306848315
 H          3.5567624710        0.0248692344       -1.5310709051
 H          1.8501194194        0.6075011840       -3.2201560447
 H         -0.3441256276        1.4851328029       -2.5104925625
 C         -1.2341088424        1.9472464236       -0.0257472023
 H         -1.5910283549        2.6350001635       -0.8092248339
 C         -1.2169293863        2.7433600937        1.2706951244
 C         -2.4953053181        3.0444820634        1.9927862033
 C         -1.4784489797        2.1380940806        2.6159013712
 H         -0.9122492148        2.5086542423        3.4584831078
 H         -1.6885515248        1.0812566010        2.6663649276
 H         -2.6346786676        4.0300349674        2.4104713921
 H         -3.4000618243        2.6017309920        1.6022428293
 H         -0.4823078293        3.5424234823        1.2368442221
 O         -3.6667504949        2.0691638895       -1.4239751369
