  62
        -98.94784363
 C          0.9925280681        0.9851273460        0.7112718390
 C          1.6318179157        0.8987118327       -0.5485539581
 C          2.3292078864       -0.3646671641       -0.8265627960
 C          2.2632594848       -1.3655083820        0.0693082429
 C          2.9487930539       -2.6931761925       -0.0747952213
 C          4.3496955729       -2.6698183447        0.5527418451
 C          5.1995799784       -1.4745894114        0.1222295527
 H          4.7458025692       -0.5582083348        0.5061197184
 H          6.1743222629       -1.5784607546        0.6035348401
 C          5.3902735712       -1.3458265937       -1.3953746230
 H          5.1560444132       -2.2939967346       -1.8808120199
 H          6.4404957924       -1.1273008359       -1.5998541766
 C          4.5690895796       -0.2301472575       -2.0446435792
 H          4.7300068582        0.7056828205       -1.5035673598
 H          4.9363085923       -0.0861766889       -3.0642904774
 C          3.0579001498       -0.4790077876       -2.1351246053
 H          2.6278424971        0.2919006224       -2.7818303659
 H          2.8675986116       -1.4504452921       -2.5973417429
 H          4.8612746553       -3.5969637719        0.2880135018
 H          4.2409913048       -2.6387834411        1.6391673525
 H          2.3462787773       -3.4499464813        0.4311250377
 H          3.0135580911       -2.9466866856       -1.1314882814
 O          1.5901200132       -1.2662961042        1.2443027473
 C          0.9393831347       -0.0928834537        1.5932023392
 O          0.3550252117       -0.1367203762        2.6946276206
 H         -1.4485798505        0.3624006132        0.2663611764
 C         -1.6701775959        1.3016938465       -0.2190839493
 C         -0.9074860572        2.4200879760        0.0929388047
 C         -1.2146033506        3.6254895416       -0.5231427748
 C         -2.2387078440        3.6909519774       -1.4530218383
 C         -2.9619410817        2.5636252143       -1.7967734884
 C         -2.6710029678        1.3550605884       -1.1732229638
 N         -3.3847789184        0.1855888469       -1.4740612173
 S         -2.6041274051       -1.2941667980       -1.4351493193
 O         -1.2323712347       -1.2013236640       -1.8788870962
 O         -3.4604378416       -2.1650340950       -2.2152999148
 C         -2.6791632378       -1.7974191719        0.2698271967
 C         -1.5810421937       -2.4143734975        0.8340069858
 C         -1.6441945821       -2.8229757074        2.1561043878
 C         -2.8036594072       -2.6127361871        2.8854570104
 C         -3.9022588307       -2.0000173647        2.3018575871
 C         -3.8444080222       -1.5882417002        0.9803275086
 H         -4.6751276953       -1.1036898496        0.4950437417
 H         -4.8009594927       -1.8376047675        2.8749040238
 H         -2.8466620231       -2.9248349191        3.9169683733
 H         -0.7838629647       -3.2860479929        2.6119000199
 H         -0.6915311827       -2.5413464926        0.2356557550
 H         -4.0299259346        0.2583145876       -2.2471993366
 H         -3.7408775520        2.6130714502       -2.5422222577
 H         -2.4646890088        4.6318078948       -1.9316454169
 H         -0.6453400520        4.5095973388       -0.2874291251
 C          0.2170991957        2.2370992382        1.0841153013
 H         -0.2262675318        2.0377685223        2.0708963774
 C          1.1373185009        3.4339108641        1.1913386913
 C          0.7947871797        4.5677824581        2.1091851502
 C          1.9163743567        3.6364033949        2.4550490938
 H          2.9310603627        3.9981458067        2.3827878755
 H          1.7633048663        2.9221688179        3.2511631597
 H          1.0420740396        5.5727475068        1.8020527358
 H         -0.1191274976        4.4914072120        2.6784539402
 H          1.6338490858        3.6618494680        0.2553296544
 O          1.6271026930        1.8298527848       -1.3963629574
