  62
        -98.93952436
 C         -2.2798951355       -0.8865110630        0.6379846856
 C         -3.4256196266       -0.9000320825       -0.1952739963
 C         -4.4502176621        0.1133029744        0.1026040459
 C         -4.2541232771        0.9832265430        1.1087635699
 C         -5.1879365755        2.0992451347        1.4759663711
 C         -4.8310550753        3.3931252429        0.7309628949
 C         -4.6379699670        3.2071757797       -0.7741362011
 H         -4.4214522420        4.1905186618       -1.1973426822
 H         -3.7570630355        2.5837222226       -0.9453668822
 C         -5.8436994819        2.5923791498       -1.4985159947
 H         -6.7359546337        2.6878917601       -0.8788012637
 H         -6.0243567962        3.1554341527       -2.4165323162
 C         -5.6613241604        1.1282365371       -1.9020585366
 H         -4.7184665339        1.0119692959       -2.4422272809
 H         -6.4683551880        0.8621657205       -2.5897842643
 C         -5.6863341417        0.1126456335       -0.7530278944
 H         -6.5766667365        0.2703433942       -0.1412911394
 H         -5.7439571605       -0.8863699484       -1.1944851047
 H         -5.6216964535        4.1238251938        0.9110396348
 H         -3.9015577898        3.7874695689        1.1485727379
 H         -6.2085663643        1.8027498944        1.2418705406
 H         -5.1068947369        2.2747329286        2.5500230692
 O         -3.1423071110        0.9685220332        1.8887011190
 C         -2.1385533600        0.0405309637        1.6757040279
 O         -1.1842977357        0.1330014301        2.4760305151
 H          1.4458034431       -1.0892443654        0.7166165750
 C          1.1166242316       -1.0867634637       -0.3119476460
 C         -0.1882873537       -1.4437060287       -0.6213231947
 C         -0.5953604152       -1.4134707547       -1.9512144011
 C          0.2877733303       -1.0261799538       -2.9420401092
 C          1.5867688569       -0.6663651426       -2.6300592121
 C          2.0061625838       -0.7006505801       -1.3049388294
 N          3.3370029963       -0.3896471752       -0.9748974605
 S          3.6791273265        0.3724802968        0.4913559920
 O          3.6032816182       -0.6016491654        1.5506611700
 O          2.8666085572        1.5598132615        0.6389154761
 C          5.3842402931        0.8149491374        0.2128292743
 C          6.3431517878       -0.1758693136        0.3115643424
 C          7.6685598454        0.1479781800        0.0700961426
 C          8.0118334435        1.4498194914       -0.2641221035
 C          7.0391518785        2.4336930892       -0.3571014075
 C          5.7109801706        2.1160237125       -0.1183304984
 H          4.9216324798        2.8486201878       -0.1717231447
 H          7.3091370305        3.4453764195       -0.6138025037
 H          9.0443426318        1.6997129855       -0.4504778396
 H          8.4277923674       -0.6137413330        0.1441733160
 H          6.0298131757       -1.1702997133        0.5832138256
 H          3.8287032155        0.0588041447       -1.7365129979
 H          2.2737346764       -0.3644145581       -3.4061827510
 H         -0.0404185104       -1.0004109591       -3.9702828148
 H         -1.6118033117       -1.6805379422       -2.1954324818
 C         -1.1261437123       -1.8657984785        0.4850407652
 H         -0.5655198446       -1.8077441794        1.4286338587
 C         -1.5786417661       -3.3003258170        0.2879890926
 C         -0.6199117049       -4.4068620151        0.6035760780
 C         -1.8063378619       -4.1670365074        1.4876000469
 H         -2.6211554862       -4.8748939255        1.4641203158
 H         -1.6371444141       -3.7276966592        2.4604865276
 H          0.3548818620       -4.1301227761        0.9776633403
 H         -0.6176601630       -5.2821280349       -0.0275206421
 H         -2.2440504099       -3.4314741113       -0.5544917347
 O         -3.6112672806       -1.7073887028       -1.1435394278
