  62
        -98.94686208
 C          1.2415541909        1.2192098014        0.0863637171
 C          2.0012883087        0.7010128684        1.1608863357
 C          2.6770053710       -0.5790774615        0.9108841622
 C          2.5092784231       -1.1890884871       -0.2770315968
 C          3.1884454023       -2.4635928924       -0.6854647091
 C          4.5223880765       -2.1792051118       -1.3903195787
 C          5.4266491225       -1.2060635835       -0.6340136604
 H          6.3510002597       -1.1080837230       -1.2074010952
 H          4.9549004179       -0.2209870216       -0.6148653379
 C          5.7601132414       -1.6344927712        0.8018420964
 H          6.8278436568       -1.4828415849        0.9739464982
 H          5.5609423522       -2.6993834482        0.9275341174
 C          5.0195139185       -0.8490551063        1.8858345663
 H          5.1433502030        0.2227058827        1.7105331778
 H          5.4836633439       -1.0778189249        2.8490489211
 C          3.5202741391       -1.1456011888        2.0184996797
 H          3.3654697156       -2.2225732650        2.1111355212
 H          3.1685423596       -0.6684697333        2.9382247897
 H          5.0455962021       -3.1262541431       -1.5345935867
 H          4.3109262896       -1.7540899522       -2.3740116358
 H          3.3570341288       -3.0793875525        0.1957833228
 H          2.5342565307       -2.9994989475       -1.3740689860
 O          1.7345127057       -0.6826516917       -1.2680093278
 C          1.0791213032        0.5297158038       -1.1163941816
 O          0.3999843595        0.8741108262       -2.0992442623
 O          2.1024993145        1.2772816725        2.2789314923
 C          0.5158953496        2.5412055051        0.2659967048
 C         -0.9693773244        2.3074617522        0.1466625370
 C         -1.7988045795        3.0102354520       -0.7158420397
 C         -3.1466299207        2.7018631529       -0.7995324170
 C         -3.6964085283        1.6976607393       -0.0243608912
 C         -2.8762425673        0.9980371144        0.8518130840
 C         -1.5287548348        1.3066065810        0.9329029881
 H         -0.8912120838        0.7546336003        1.6130208876
 N         -3.4239731010       -0.0358825693        1.6447313690
 S         -4.0015026744       -1.3652943533        0.8029943177
 O         -5.1738981235       -0.9735192425        0.0638709039
 O         -4.1865126847       -2.3983647285        1.7969699587
 C         -2.6911413417       -1.8177887810       -0.3180955492
 C         -2.6475576602       -1.2479880286       -1.5744301037
 C         -1.6028861664       -1.5771447036       -2.4224526772
 C         -0.6252350097       -2.4641763757       -2.0010064004
 C         -0.6774889410       -3.0205233339       -0.7323027370
 C         -1.7171722575       -2.6916838640        0.1217447806
 H         -1.7986993110       -3.1096698524        1.1127242904
 H          0.0893305846       -3.7043099479       -0.4038569884
 H          0.1867002213       -2.7123451908       -2.6661490496
 H         -1.5448688180       -1.1303893683       -3.4013475490
 H         -3.4280546499       -0.5657122847       -1.8690498153
 H         -2.7871823875       -0.3562020666        2.3614973577
 H         -4.7389367444        1.4321473174       -0.0925569611
 H         -3.7776785373        3.2509322636       -1.4817982250
 H         -1.3897590612        3.7925926874       -1.3333149163
 H          0.7316122955        2.8575408813        1.2973022710
 C          1.0518290706        3.5868844227       -0.6876476499
 C          0.9411565991        5.0419949341       -0.3461614347
 C          2.2751896382        4.3610944865       -0.3018897587
 H          3.0009771095        4.5944614423       -1.0664462260
 H          2.7120126330        4.1517831593        0.6638598356
 H          0.7529089993        5.7463091558       -1.1422721370
 H          0.4731480579        5.3013838635        0.5914114846
 H          0.9524588732        3.2945749594       -1.7266830150
