  62
        -98.93664576
 C          2.4712375578        0.1743385442        0.5131706394
 C          2.1859333628       -0.5604262281       -0.6600125279
 C          1.6550074747       -1.9230752416       -0.4752612235
 C          1.4568750708       -2.3825869967        0.7727740684
 C          0.8395739341       -3.6833774644        1.2229765372
 C          1.2041352130       -4.9567433520        0.4460897111
 C          0.0680745808       -5.4793567800       -0.4355495485
 H         -0.8745606067       -5.3411767117        0.0980738940
 H          0.2067963254       -6.5528552194       -0.5827131129
 C         -0.0373226518       -4.8353900848       -1.8164309596
 H         -0.9560122326       -5.2004124323       -2.2814692347
 H          0.7974581963       -5.1709846891       -2.4357258270
 C         -0.0572149428       -3.3059891694       -1.8288128513
 H         -0.6847865871       -2.9110803506       -1.0289779493
 H         -0.5088559135       -2.9836200974       -2.7696697470
 C          1.3403313149       -2.6736826168       -1.7395993253
 H          1.4577660572       -1.9315729468       -2.5351489840
 H          2.1087598054       -3.4329920751       -1.9090639674
 H          1.4420402044       -5.7302044772        1.1783486015
 H          2.1010006878       -4.7864635536       -0.1465041060
 H          1.1387162879       -3.7891996371        2.2688537629
 H         -0.2458589626       -3.5448915850        1.2246553564
 O          1.7749410727       -1.6474686862        1.8790946528
 C          2.2543935407       -0.3553400439        1.7821549488
 O          2.4562466236        0.2064776779        2.8801976509
 H          0.2797445614        1.4040455958        0.9206575613
 C          0.4496628213        2.0821344201        0.0956791953
 C          1.7505705640        2.3641871005       -0.3032902273
 C          1.9447451060        3.2598160266       -1.3456992803
 C          0.8567837574        3.8189117561       -1.9954786812
 C         -0.4357767721        3.4851103233       -1.6366397776
 C         -0.6394171212        2.6069830398       -0.5767932042
 N         -1.9357288664        2.2507289318       -0.1659648837
 S         -2.1719079658        0.7241311703        0.5182594810
 O         -1.8567175632        0.7981305201        1.9247179133
 O         -1.4893553765       -0.2971473682       -0.2416563195
 C         -3.9371761018        0.5652145825        0.3161832369
 C         -4.4392510524       -0.2473478587       -0.6822258779
 C         -5.8130188175       -0.3385884204       -0.8452022598
 C         -6.6559984486        0.3836205056       -0.0142631411
 C         -6.1371702493        1.1952176099        0.9840820754
 C         -4.7651055260        1.2889277086        1.1539996185
 H         -4.3154587997        1.8970992157        1.9215050874
 H         -6.7955610497        1.7533672133        1.6298749385
 H         -7.7242819677        0.3115621925       -0.1436011255
 H         -6.2183465575       -0.9714496780       -1.6180981711
 H         -3.7438071649       -0.7923845226       -1.3003455568
 H         -2.6414833546        2.4641149216       -0.8576106769
 H         -1.2802511448        3.8960759533       -2.1684233063
 H          1.0198169920        4.5074099480       -2.8107821562
 H          2.9453443139        3.5051451690       -1.6620800115
 C          2.8676522560        1.6371792967        0.4090713111
 H          2.9248227592        2.0124349495        1.4418518028
 C          4.2198795965        1.7983800652       -0.2506555384
 C          5.0786041165        2.9834748507        0.0715911495
 C          5.4547648102        1.6250349453        0.5796760931
 H          6.3047118320        1.1246818192        0.1407821030
 H          5.3176277582        1.4127247451        1.6302707629
 H          4.6947040157        3.7002588131        0.7817624688
 H          5.6760058015        3.4166732604       -0.7162730687
 H          4.2363933245        1.4089033325       -1.2617652646
 O          2.3540814486       -0.0949612466       -1.8188114984
