  62
        -98.94509909
 C         -2.5618837088       -0.0365179953        0.3704670423
 C         -2.2371346452        0.5812263045       -0.8614180061
 C         -1.9580066063        2.0226635296       -0.8011961870
 C         -2.0437906224        2.6629267641        0.3785678756
 C         -1.8147036075        4.1333675092        0.5783117877
 C         -0.3645046052        4.4483257982        0.9649794052
 C          0.6800653884        3.8012455134        0.0556920081
 H          1.6588180349        4.1585485886        0.3852827201
 H          0.6738723744        2.7192306224        0.2052350550
 C          0.5057845612        4.1019871825       -1.4392487905
 H         -0.1120471040        4.9913464766       -1.5725694266
 H          1.4878827780        4.3209912058       -1.8633178913
 C         -0.0801766339        2.9434676950       -2.2497095571
 H          0.4405587270        2.0197312822       -1.9831287203
 H          0.1058833165        3.1383261356       -3.3095142693
 C         -1.5876266200        2.7087785365       -2.0851732114
 H         -2.1239925422        3.6546248888       -2.1906529086
 H         -1.9126825985        2.0370230616       -2.8851419990
 H         -0.1922623251        4.0957947294        1.9848682238
 H         -0.2373018457        5.5330785454        0.9539233360
 H         -2.4738846283        4.4716995370        1.3803676699
 H         -2.0773158557        4.6579736166       -0.3386106794
 O         -2.3539373637        2.0339391940        1.5429846563
 C         -2.5908352421        0.6694033080        1.5708557823
 O         -2.8274746625        0.2108984555        2.7096909139
 O         -2.2001598863       -0.0364258479       -1.9581529480
 C         -2.8479550130       -1.5255716713        0.4159558121
 C         -1.6963162055       -2.3118548704       -0.1646464585
 C         -1.8709213975       -3.5019623175       -0.8596691292
 C         -0.7755970235       -4.1906217318       -1.3527042634
 C          0.5066586643       -3.7050399038       -1.1799975564
 C          0.6914467898       -2.5094579111       -0.4917468240
 C         -0.4036894310       -1.8444749865        0.0322444828
 H         -0.2498478896       -0.9322108747        0.5902421290
 N          1.9764338413       -1.9579542059       -0.3631264408
 S          2.2688563949       -0.6180632398        0.6022978273
 O          2.0092980026       -0.9217609955        1.9948469529
 O          1.5760050806        0.5165285768        0.0499438756
 C          4.0228614844       -0.4410312902        0.3403471043
 C          4.4610576966        0.2873466066       -0.7490199820
 C          5.8235975603        0.4023555083       -0.9745281233
 C          6.7205069119       -0.2108548563       -0.1124225014
 C          6.2663048244       -0.9363808685        0.9787175373
 C          4.9047595103       -1.0550344838        1.2095168501
 H          4.5060837995       -1.5978332051        2.0515476219
 H          6.9659548010       -1.4084614389        1.6494419144
 H          7.7803791647       -0.1196832512       -0.2900734479
 H          6.1796970244        0.9690932278       -1.8196084076
 H          3.7257341002        0.7521499565       -1.3853026616
 H          2.7242505582       -2.6354844587       -0.3483833949
 H          1.3575338154       -4.2338930946       -1.5803297888
 H         -0.9248057820       -5.1169702003       -1.8864698040
 H         -2.8645482254       -3.8893344485       -1.0160893287
 H         -2.9360511158       -1.7867473876        1.4821039203
 C         -4.1681332909       -1.8206834910       -0.2697377792
 C         -5.0588003438       -2.9181971455        0.2278969564
 C         -5.4420070508       -1.4860914354        0.4445240494
 H         -6.2614770219       -1.0755619729       -0.1259023597
 H         -5.3541241523       -1.0757267733        1.4404065064
 H         -5.6211447054       -3.4924375377       -0.4929781995
 H         -4.7251513044       -3.4848493429        1.0842384464
 H         -4.1280212198       -1.6342016507       -1.3368897232
