  62
        -98.93687844
 C         -1.9887941087       -0.8958065631       -0.0344610919
 C         -2.2744459996        0.0928911671        0.9334348525
 C         -2.4334540812        1.4693505028        0.4390211778
 C         -2.2815712534        1.7181332427       -0.8731315520
 C         -2.3319529968        3.0447815738       -1.5897731884
 C         -3.4277661516        4.0369761497       -1.1780148825
 C         -4.7529781632        3.3944653998       -0.7429249669
 H         -4.7515904693        2.3321790191       -0.9926402174
 H         -5.5710100919        3.8596258398       -1.2958061693
 C         -5.0379094915        3.5664718871        0.7508777127
 H         -6.1084634852        3.4319093936        0.9223460895
 H         -4.7855411216        4.5887919062        1.0403140128
 C         -4.3067812223        2.5918587339        1.6733069357
 H         -4.7147202262        1.5851991416        1.5481477282
 H         -4.5039542845        2.8914611574        2.7054045985
 C         -2.7851411535        2.5032931478        1.4700532992
 H         -2.3375846299        2.1564440673        2.4059877304
 H         -2.3600464167        3.4741865823        1.2261723853
 H         -3.6022038756        4.6865001261       -2.0374558197
 H         -3.0595698708        4.6726966916       -0.3740695314
 H         -2.4457551105        2.7907835176       -2.6465110945
 H         -1.3522193485        3.5192533336       -1.4777181494
 O         -2.0091063614        0.7326984188       -1.7745609983
 C         -1.8368074050       -0.5844373927       -1.3844146608
 O         -1.5682442569       -1.3663462511       -2.3171547511
 O         -2.3789047342       -0.1619310807        2.1657536182
 C         -1.7436548400       -2.3223954699        0.4154449270
 C         -0.3392124350       -2.7535903485        0.0637697917
 C         -0.0143932885       -4.0610329737       -0.2755227795
 C          1.2947038175       -4.4026544782       -0.5698461093
 C          2.3008039893       -3.4555824284       -0.5414523623
 C          1.9848763880       -2.1415712656       -0.2087546743
 C          0.6794843263       -1.8105606033        0.1111609616
 H          0.4503446299       -0.7918208797        0.3886738274
 N          2.9741453462       -1.1456281735       -0.2342138280
 S          2.7123913852        0.3744746597        0.4283678417
 O          2.4112340355        0.2730354743        1.8407383820
 O          1.7569826121        1.0864148474       -0.3839353211
 C          4.3355434617        1.0779093082        0.2055010729
 C          5.2260654830        1.0886405949        1.2623119438
 C          6.4933071273        1.6152637045        1.0664790985
 C          6.8475527613        2.1173300345       -0.1766122448
 C          5.9426144213        2.1012142716       -1.2278113851
 C          4.6739482768        1.5769247432       -1.0381968574
 H          3.9334725814        1.5511142035       -1.8209277249
 H          6.2197040411        2.4951496460       -2.1923059585
 H          7.8339253767        2.5267480464       -0.3268945112
 H          7.1973772296        1.6324133476        1.8826271317
 H          4.9020796707        0.6965221388        2.2128710126
 H          3.9110107905       -1.4882420461       -0.0783879924
 H          3.3178157931       -3.7215177026       -0.7841638268
 H          1.5335879555       -5.4227139654       -0.8298367112
 H         -0.7869655558       -4.8117165829       -0.3115337212
 H         -1.8277294844       -2.3016269484        1.5136266891
 C         -2.8067163681       -3.2499823770       -0.1380316575
 C         -3.2777048803       -4.4310205691        0.6556297366
 C         -4.1691687788       -3.2390298379        0.4860181092
 H         -5.0322071346       -3.3227473784       -0.1571413116
 H         -4.3175064356       -2.5852513989        1.3334048682
 H         -3.5327056130       -5.3375233618        0.1276477949
 H         -2.8318557057       -4.5924217288        1.6255726573
 H         -2.7501736999       -3.3436526982       -1.2167655325
