  62
        -98.94421305
 C         -1.6929510892       -1.3007034106        0.2594389849
 C         -1.2950613665       -0.2295804588       -0.5706077174
 C         -1.8547903583        1.0935958571       -0.2524142568
 C         -2.6914016171        1.2127176423        0.7926708342
 C         -3.4002179838        2.4520654184        1.2656229715
 C         -4.7875665847        2.5775293621        0.6123903285
 C         -4.8057459436        3.3065621199       -0.7304568748
 H         -5.8174277256        3.2190583981       -1.1331148867
 H         -4.6089488367        4.3676970525       -0.5643283737
 C         -3.8145960927        2.7814158031       -1.7716607275
 H         -3.8211227472        1.6900625502       -1.7658297937
 H         -4.1602652972        3.1036667937       -2.7556354231
 C         -2.3826430868        3.2933911566       -1.5547393780
 H         -2.0052939954        3.7214112397       -2.4857880859
 H         -2.3970003624        4.1034160718       -0.8259731643
 C         -1.3718703003        2.2241849413       -1.1192935935
 H         -0.9569323027        1.7359464199       -2.0070527958
 H         -0.5305036882        2.7040261496       -0.6053076355
 H         -5.1917911367        1.5693635611        0.4904596784
 H         -5.4480926939        3.1135103495        1.2970076017
 H         -3.5302660805        2.3394188295        2.3442524071
 H         -2.7931760286        3.3336493058        1.0814929989
 O         -3.0595666470        0.1504726495        1.5629145345
 C         -2.5551071591       -1.1164906618        1.3373042254
 O         -2.9442199022       -1.9829769639        2.1488047764
 O         -0.5018484968       -0.3724548283       -1.5396126664
 C         -1.1057443136       -2.6818851855        0.0340400825
 C          0.4018721332       -2.5953259212        0.0114905842
 C          1.1944409106       -3.3209173800       -0.8694810323
 C          2.5712145109       -3.1763167012       -0.8584409746
 C          3.1836470740       -2.2909548073        0.0096096317
 C          2.3998647830       -1.5697340943        0.9024918639
 C          1.0271770266       -1.7504190141        0.9197912666
 H          0.4350527517       -1.1831864951        1.6236822313
 N          2.9661126935       -0.6340173678        1.7949891303
 S          2.5371568144        0.9731005273        1.5750014848
 O          3.2993325928        1.7013074370        2.5678204928
 O          1.1059967799        1.1184037563        1.6377841107
 C          3.1572710281        1.3754529956       -0.0492361756
 C          2.4469230853        0.9836482469       -1.1660233602
 C          2.9840084443        1.2427903250       -2.4184295057
 C          4.2099731968        1.8790444492       -2.5331385522
 C          4.9103968333        2.2648097193       -1.3998118745
 C          4.3833438558        2.0065708578       -0.1452708667
 H          4.8886297247        2.2897181442        0.7641155932
 H          5.8630372335        2.7615650240       -1.4895652488
 H          4.6204381732        2.0758387617       -3.5110228780
 H          2.4331614710        0.9388974058       -3.2940668463
 H          1.4914409669        0.4932659606       -1.0585859277
 H          3.9737430969       -0.6946428478        1.8580201545
 H          4.2546706910       -2.1550272923       -0.0017915704
 H          3.1731214276       -3.7456505267       -1.5500449397
 H          0.7321335100       -3.9953631543       -1.5716559928
 H         -1.4073537751       -3.2883982595        0.9011092570
 C         -1.6872237532       -3.3003375239       -1.2216125968
 C         -1.8780304591       -4.7834492023       -1.3205959425
 C         -3.0659983515       -3.8836782881       -1.1651052868
 H         -3.7224272044       -3.7408365235       -2.0103095114
 H         -3.5723423474       -3.8595937700       -0.2107577088
 H         -1.7228551404       -5.2610993632       -2.2762828331
 H         -1.5858047759       -5.3838848766       -0.4723650999
 H         -1.4101495867       -2.7562961057       -2.1173659805
