  62
        -98.93715631
 C         -1.7572368588       -0.0820427903        0.3896129487
 C         -2.9067444407       -0.4806801078        1.1119573179
 C         -4.1973532376       -0.0109166959        0.5873839398
 C         -4.2129652672        0.7669550033       -0.5104756538
 C         -5.4480989689        1.2562775289       -1.2122376844
 C         -6.0582904106        0.1190082739       -2.0564900538
 C         -7.4357634741       -0.3480153116       -1.5852469951
 H         -8.1825174409        0.3896662689       -1.8864658623
 H         -7.6620704364       -1.2786587808       -2.1099766327
 C         -7.5844346408       -0.5763642084       -0.0778841725
 H         -7.7296140870        0.3806245687        0.4254700641
 H         -8.5041747949       -1.1469493433        0.0675065831
 C         -6.4302049809       -1.3204343901        0.6058947596
 H         -5.8906377906       -1.9372274590       -0.1130677370
 H         -6.8558314818       -1.9973599004        1.3494010104
 C         -5.4319344225       -0.4113918679        1.3470249754
 H         -5.9485865574        0.4840048322        1.7034719296
 H         -5.0578728056       -0.9463222046        2.2249507634
 H         -6.1438468736        0.4428502836       -3.0948928401
 H         -5.3637597103       -0.7236816588       -2.0475463371
 H         -6.1674901026        1.6193493063       -0.4816122509
 H         -5.1502010477        2.0869312044       -1.8523780790
 O         -3.0847959727        1.1424426718       -1.1684850410
 C         -1.8301224770        0.7298909060       -0.7414434337
 O         -0.8869880798        1.1480715215       -1.4392590984
 O         -2.8543477408       -1.1919414811        2.1515039052
 C         -0.3941699047       -0.5471756572        0.8683702857
 C          0.5022634951        0.6345936049        1.1402171005
 C          0.0158035309        1.6804158293        1.9211585217
 C          0.8008965756        2.7828489747        2.1937849394
 C          2.0896913977        2.8656559122        1.6964955306
 C          2.5915541341        1.8217979524        0.9291626517
 C          1.8021917679        0.7100334770        0.6646505366
 H          2.2067647472       -0.0825506153        0.0582969694
 N          3.9121100300        1.8591070612        0.4651669828
 S          4.3926381063        1.1024188422       -0.9435789771
 O          5.6849857705        1.6908440075       -1.2303043297
 O          3.4086350208        1.2032947845       -1.9948261464
 C          4.6342169918       -0.5999582344       -0.4795812548
 C          5.1726154129       -0.8934641034        0.7576881476
 C          5.3996566144       -2.2193215845        1.0906793254
 C          5.0962026907       -3.2236341835        0.1842174086
 C          4.5614145146       -2.9122059865       -1.0564007042
 C          4.3267436382       -1.5880528304       -1.3936533632
 H          3.8988291645       -1.3013546790       -2.3415742378
 H          4.3257017209       -3.6935893946       -1.7616876462
 H          5.2745832502       -4.2548070413        0.4451403463
 H          5.8131810994       -2.4655354659        2.0553217913
 H          5.3976263256       -0.0890461643        1.4375239537
 H          4.3991510924        2.7302674889        0.6139848841
 H          2.7018929354        3.7308429085        1.9003701818
 H          0.4062374144        3.5891030841        2.7937631996
 H         -0.9939676488        1.6193872434        2.3039156427
 H         -0.5832891040       -1.0594977906        1.8238648974
 C          0.1966275739       -1.5444736671       -0.1058698100
 C          1.1166878642       -2.6203638778        0.3866471842
 C         -0.2720467446       -2.9668958069       -0.0565036908
 H         -0.4015383901       -3.4988721990       -0.9870468916
 H         -1.0039957771       -3.2196391662        0.6966518024
 H          1.9458082665       -2.9156306575       -0.2382039142
 H          1.3316185650       -2.6452085416        1.4440436771
 H          0.3856466467       -1.1112406353       -1.0827480988
