  62
        -98.93725279
 C         -2.4827288562       -1.0618176751       -0.1305944014
 C         -3.6301998184       -0.9384230124        0.6860809288
 C         -4.6859281403       -0.0324555526        0.2017563656
 C         -4.5063543997        0.6127901353       -0.9640925947
 C         -5.4241421569        1.6174352266       -1.6041097842
 C         -5.0261391246        3.0485271718       -1.2043579258
 C         -5.6549818996        3.5535813517        0.0936669950
 H         -5.1931589031        4.5161205313        0.3251863544
 H         -6.7199339668        3.7321512916       -0.0692147469
 C         -5.4939765153        2.6281453674        1.3025146294
 H         -4.4763796864        2.2341354644        1.3310890295
 H         -5.6333121759        3.2277947792        2.2041713008
 C         -6.5036596174        1.4707879000        1.3153649639
 H         -7.0017793305        1.4364397791        2.2865477694
 H         -7.2806498357        1.6677230591        0.5769292721
 C         -5.9054907597        0.0764858291        1.0761213229
 H         -6.6831300636       -0.5808666485        0.6729365793
 H         -5.5982615242       -0.3563811757        2.0334282034
 H         -3.9365820486        3.0826238201       -1.1237679240
 H         -5.3155817293        3.7297024403       -2.0070901441
 H         -6.4595805380        1.4110772630       -1.3501716827
 H         -5.2979283460        1.5103268859       -2.6834507963
 O         -3.3843049144        0.4639935224       -1.7207959423
 C         -2.3470680293       -0.3654353009       -1.3310442714
 O         -1.3879492096       -0.3974378764       -2.1247320643
 O         -3.7643162551       -1.5526304404        1.7793006741
 C         -1.3566686364       -1.9749568937        0.3211221736
 C         -0.1026884270       -1.1611880790        0.5235119890
 C         -0.1164992792       -0.1461909686        1.4776823585
 C          1.0000055180        0.6371982909        1.6933268135
 C          2.1561141950        0.4302820222        0.9599649427
 C          2.1839524578       -0.5821258874        0.0120298482
 C          1.0610071169       -1.3752558300       -0.1960463596
 H          1.0990156637       -2.1550385886       -0.9404292335
 N          3.3453617070       -0.7892606294       -0.7470678419
 S          4.8392202295       -0.8083523382        0.0095402058
 O          5.6939244052       -1.5796078194       -0.8664426279
 O          4.7366065007       -1.2700270959        1.3744297108
 C          5.3617849195        0.8934792865       -0.0228114646
 C          5.7459574756        1.5185664569        1.1472438009
 C          6.1600538184        2.8405790563        1.0963950116
 C          6.1837816668        3.5099279612       -0.1174750083
 C          5.7975374807        2.8669173678       -1.2842034147
 C          5.3832360416        1.5453827871       -1.2401578409
 H          5.0773507375        1.0110139412       -2.1241703814
 H          5.8168844389        3.3907668440       -2.2263842924
 H          6.5056174530        4.5387138827       -0.1549617830
 H          6.4612058916        3.3421300076        2.0020818649
 H          5.7066637138        0.9602171123        2.0691394705
 H          3.2658816911       -1.5238997248       -1.4343556460
 H          3.0296709360        1.0408232953        1.1194949112
 H          0.9720694712        1.4200185456        2.4361863603
 H         -1.0210029847        0.0185512189        2.0474878733
 H         -1.6712736050       -2.3628053177        1.3008207685
 C         -1.1945339629       -3.1395113221       -0.6320317343
 C         -0.5314102187       -4.4000369252       -0.1651690416
 C         -2.0093025893       -4.3772686612       -0.4121978807
 H         -2.3967325767       -4.8988912307       -1.2744725832
 H         -2.6723395590       -4.3912094383        0.4403666398
 H          0.0957109356       -4.9421300763       -0.8570945090
 H         -0.1871328342       -4.4329341869        0.8576038988
 H         -1.0346591629       -2.8254238041       -1.6574375353
