  62
        -98.94795842
 C         -1.2532222793       -0.7706948001        0.3938208097
 C         -2.0931443793       -0.5894697398       -0.7307562002
 C         -3.0561495293        0.5143937802       -0.6322879799
 C         -3.0460910994        1.3190795498        0.4457169104
 C         -3.9432891694        2.5055805697        0.6730430108
 C         -5.3173227294        2.1490349295        1.2570478306
 C         -6.2800682294        1.4651829898        0.2853828803
 H         -7.2656942894        1.4709148996        0.7549973603
 H         -6.3511730694        2.0559090801       -0.6283992095
 C         -5.9070612193        0.0173577999       -0.0624622801
 H         -6.7969593693       -0.6128270401        0.0003250996
 H         -5.1933657294       -0.3611662803        0.6727545198
 C         -5.3191037693       -0.1669895096       -1.4615318702
 H         -6.0719241393        0.0842848706       -2.2118710901
 H         -5.0564175593       -1.2203689995       -1.5868143205
 C         -4.0614525393        0.6690929305       -1.7332377099
 H         -3.5993798093        0.3076941409       -2.6553617400
 H         -4.3263478093        1.7182927906       -1.8638766395
 H         -5.1695581694        1.5128742792        2.1327640004
 H         -5.7772695495        3.0800569394        1.5963767909
 H         -3.4237348095        3.1554561695        1.3809366310
 H         -4.0728511894        3.0501323500       -0.2629210591
 O         -2.1743164394        1.1529482595        1.4761685104
 C         -1.2658067794        0.1072481195        1.4771078400
 O         -0.5277341394        0.0675873892        2.4840195300
 H          0.8402220107        0.4296406802       -0.3177478498
 C          1.2586676007       -0.3853968296       -0.8880177500
 C          0.7938390507       -1.6765307697       -0.6809938205
 C          1.3269002908       -2.7026026994       -1.4509540508
 C          2.2891169108       -2.4291809891       -2.4081141907
 C          2.7615907708       -1.1429669990       -2.5979405703
 C          2.2398703507       -0.1112459993       -1.8261913599
 N          2.6929991007        1.2103565808       -1.9634183895
 S          2.8529677306        2.1488320203       -0.5860819391
 O          1.5641249206        2.6187740401       -0.1425595190
 O          3.7989368206        3.1773982905       -0.9658420988
 C          3.5998510006        1.0590531899        0.6135878405
 C          4.9129780606        0.6896368900        0.3891921104
 C          5.5218450106       -0.1983290102        1.2594923402
 C          4.8081180506       -0.7065204206        2.3347037800
 C          3.4944846606       -0.3218856907        2.5495175300
 C          2.8792752006        0.5696566795        1.6833385003
 H          1.8547885506        0.8740766395        1.8340397004
 H          2.9311796606       -0.7108165510        3.3830192299
 H          5.2776320706       -1.4035062108        3.0107788297
 H          6.5455979906       -0.4940114802        1.0965890501
 H          5.4364710707        1.1159950603       -0.4510815294
 H          3.4723422607        1.3310353910       -2.5935754294
 H          3.5181958508       -0.9349561088       -3.3385880602
 H          2.6861377908       -3.2330694489       -3.0089143010
 H          0.9839053908       -3.7140013695       -1.3073057512
 C         -0.2325767893       -1.8930980501        0.4056324294
 H          0.2905266807       -1.8157216304        1.3710755294
 C         -0.9199163193       -3.2405621801        0.3298738289
 C         -0.3210102793       -4.4348417603        1.0080792485
 C         -1.5549926193       -3.7957302405        1.5683128787
 H         -2.4966342993       -4.3159052105        1.4767866385
 H         -1.4657951093       -3.2132135008        2.4742225689
 H          0.6065730607       -4.2948591705        1.5421535686
 H         -0.4180321492       -5.3995976301        0.5334232582
 H         -1.4411394392       -3.3886038298       -0.6085362111
 O         -2.0434553692       -1.3066957494       -1.7638811605
