  62
        -98.93306406
 C          1.8188335638        0.8039162103        0.7735058681
 C          2.1681672488       -0.5679718678        0.7079627048
 C          3.5933303239       -0.8945354894        0.5309679255
 C          4.4875008811        0.1063581093        0.4318667680
 C          5.9953712051        0.0902211207        0.2891409831
 C          6.7321350167       -1.2003099173       -0.0588919042
 C          6.4776072940       -1.7187245281       -1.4742363215
 H          6.9576879341       -1.0392708152       -2.1831062840
 H          6.9574544014       -2.6948507428       -1.5729709840
 C          5.0106474532       -1.8422357202       -1.8785153345
 H          4.5414858939       -0.8563113922       -1.8636984670
 H          4.9777380790       -2.1980331065       -2.9119451020
 C          4.1766194403       -2.8007605832       -1.0311778712
 H          4.6496835145       -3.7846254336       -1.0158810748
 H          3.2018642907       -2.9047215484       -1.5154141489
 C          3.9264402654       -2.3545161032        0.4191735640
 H          3.0523137920       -2.8958131813        0.7925797736
 H          4.7668049406       -2.6080677990        1.0609348879
 H          7.8002023118       -0.9813245838        0.0243175572
 H          6.5111735255       -1.9687657082        0.6759886402
 H          6.2325331975        0.8518676202       -0.4605888763
 H          6.3856901861        0.4659129985        1.2414971511
 O          4.1059917301        1.4141602942        0.4999053773
 C          2.7818831170        1.8052958417        0.6572110423
 O          2.6291566124        3.0394965772        0.6741671073
 H         -2.0124837678        0.0535880825        0.2509645462
 C         -1.6014000660        0.6686778271       -0.5340587032
 C         -0.3697042018        1.2789850463       -0.3506207319
 C          0.1606891959        2.0421506788       -1.3854543299
 C         -0.5370239208        2.1925933676       -2.5702310798
 C         -1.7804277671        1.6080897143       -2.7368144295
 C         -2.3188052728        0.8428816317       -1.7092213835
 N         -3.5722208519        0.2320772065       -1.8416517747
 S         -4.6042190720        0.1571323530       -0.5239985094
 O         -5.9217172416        0.0143005314       -1.1046032094
 O         -4.4138113840        1.2827938083        0.3595706400
 C         -4.1646486628       -1.3607145068        0.2941181647
 C         -4.1699381627       -2.5259253823       -0.4466891006
 C         -3.8404578211       -3.7173870606        0.1785300786
 C         -3.5148691832       -3.7238203058        1.5265417471
 C         -3.5180489056       -2.5460364208        2.2574205198
 C         -3.8470194343       -1.3508331308        1.6376378347
 H         -3.8558628074       -0.4116572321        2.1689757915
 H         -3.2621074342       -2.5522989239        3.3048915751
 H         -3.2552992101       -4.6517196521        2.0113091196
 H         -3.8355709864       -4.6361823276       -0.3855074740
 H         -4.4312192322       -2.4809563620       -1.4907673927
 H         -4.0627616016        0.4414386015       -2.6986537139
 H         -2.3298032880        1.7415402332       -3.6563806440
 H         -0.1147565242        2.7854644459       -3.3678236380
 H          1.1174253057        2.5235716423       -1.2478591221
 C          0.3470736196        1.1163960525        0.9649944585
 H         -0.0677104039        0.2173242991        1.4491101491
 C          0.0907463559        2.2872196295        1.9036610401
 C         -0.3616570586        3.6361177079        1.4418187478
 C         -1.3110562207        2.7452392475        2.1825067590
 H         -1.5747382071        3.0038355703        3.1972495059
 H         -2.1176065743        2.2954156973        1.6205943080
 H          0.0475582608        4.5001209530        1.9427244006
 H         -0.5220285093        3.7860305781        0.3857944740
 H          0.7729722324        2.2786205042        2.7483265999
 O          1.3166975435       -1.4919116683        0.8101322370
