  62
        -98.94263227
 C         -0.6901494479       -1.4463452227        0.0365477396
 C         -1.6163872979       -1.1256699707        1.0520817118
 C         -2.5311113293        0.0018614680        0.7888160878
 C         -2.4295831378        0.6553241773       -0.3839196753
 C         -3.3101257161        1.7577005816       -0.9089734034
 C         -4.6842778284        1.2481332553       -1.3781027022
 C         -5.3493422167        0.2257098247       -0.4604323784
 H         -6.2461193512       -0.1412277991       -0.9666016417
 H         -4.6809324091       -0.6269793326       -0.3276355471
 C         -5.7705847959        0.7566500215        0.9073496637
 H         -6.4827953979        1.5737643035        0.7718978923
 H         -6.2892559142       -0.0533973779        1.4264953524
 C         -4.6354587098        1.2479297974        1.8072026307
 H         -5.0475051021        1.3791433390        2.8122738049
 H         -4.2798461189        2.2248299011        1.4908210495
 C         -3.4648767114        0.2786572055        1.9423337607
 H         -2.8206422672        0.6231553216        2.7619927190
 H         -3.8436944172       -0.6979313874        2.2651762651
 H         -4.5507265920        0.7763656920       -2.3543452178
 H         -5.3445835031        2.1074666602       -1.5056616369
 H         -2.7934826202        2.1849535542       -1.7699689737
 H         -3.4177435958        2.5381679033       -0.1612214606
 O         -1.4902997324        0.3357474154       -1.3191326884
 C         -0.5903822522       -0.6967929054       -1.1347510249
 O          0.2241181833       -0.8481633091       -2.0637509877
 O         -1.6939807292       -1.7666066611        2.1374353008
 C          0.2548524348       -2.6145469654        0.2364770323
 C          1.6925708875       -2.1662811616        0.1555860888
 C          2.6911646315       -2.9339315998       -0.4316840930
 C          3.9976859235       -2.4788233402       -0.4641758519
 C          4.3346889733       -1.2511744134        0.0750236254
 C          3.3429299269       -0.4784265804        0.6699999474
 C          2.0394137026       -0.9443335944        0.7170654488
 H          1.2817543124       -0.3397401315        1.1942041323
 N          3.6485885420        0.7719670786        1.2276606226
 S          2.5341772509        2.0041594147        1.2781425752
 O          3.3323244907        3.1856511977        1.5379085558
 O          1.5116747031        1.7255575898        2.2577843437
 C          1.7950626708        2.1723124295       -0.3383163872
 C          0.6007320601        2.8619579781       -0.3988003491
 C          0.0308343691        3.1171063595       -1.6344154882
 C          0.6518860391        2.6622050251       -2.7863145304
 C          1.8445684345        1.9631340232       -2.7094605679
 C          2.4326450055        1.7261215111       -1.4772776746
 H          3.3618328398        1.1850399279       -1.4069119528
 H          2.3195509313        1.5961234446       -3.6046809855
 H          0.1999347815        2.8469652604       -3.7480556102
 H         -0.8947441846        3.6673096213       -1.6919408544
 H          0.1391701595        3.1775673437        0.5240451630
 H          4.5838235834        1.1113061901        1.0588595140
 H          5.3514522335       -0.8908389990        0.0401863235
 H          4.7631591921       -3.0846303905       -0.9244452610
 H          2.4456331331       -3.8887119471       -0.8665346700
 H          0.0670008451       -2.9721599940        1.2607621991
 C         -0.0803635470       -3.7266179728       -0.7377160350
 C          0.1110364507       -5.1623910586       -0.3524674568
 C         -1.2707804083       -4.5936561786       -0.4611506273
 H         -1.8931618270       -4.8968427239       -1.2896039935
 H         -1.8196877000       -4.4022057267        0.4495787255
 H          0.4356176698       -5.8607301019       -1.1091989105
 H          0.4950614107       -5.3692871791        0.6350905996
 H          0.1025028746       -3.4418763990       -1.7678798521
