  62
        -98.93823441
 C          2.4922380912        0.7104057270        0.0228397322
 C          2.8908484565       -0.4489384861        0.7371353779
 C          4.0258569148       -1.2002000511        0.1881546035
 C          4.6042520212       -0.7720766480       -0.9485409502
 C          5.8008391492       -1.4062419229       -1.5952085062
 C          7.1054096068       -0.7763731782       -1.0874421564
 C          7.1916826074       -0.6789124739        0.4357016231
 H          8.1650854384       -0.2479167109        0.6797962469
 H          6.4322790063        0.0211557371        0.7916113424
 C          7.0270830834       -2.0182386156        1.1675822179
 H          7.1903971541       -2.8426855853        0.4726546252
 H          7.7934882389       -2.0906069417        1.9421642050
 C          5.6751370424       -2.2002525032        1.8601427869
 H          5.7452875242       -3.0694782693        2.5195926012
 H          5.4647143291       -1.3304229233        2.4876581946
 C          4.4747821446       -2.4263720983        0.9321846943
 H          4.6955239071       -3.2388634892        0.2368967644
 H          3.6260141235       -2.7264645723        1.5536333345
 H          7.9432283111       -1.3659078148       -1.4641981764
 H          7.1864456046        0.2319388666       -1.4999822507
 H          5.7955934124       -2.4744722997       -1.3873773074
 H          5.7299310190       -1.2541641303       -2.6734720794
 O          4.1848369199        0.3291189578       -1.6180361444
 C          3.1231638758        1.1020887944       -1.1590251572
 O          2.8663614819        2.0757490338       -1.8888030618
 O          2.3218803501       -0.8319357175        1.7954326569
 C          1.3292254443        1.4931286094        0.6056303432
 C          0.0180259022        1.0062024966        0.0433228469
 C         -0.1932943368        0.9189492760       -1.3292051284
 C         -1.4079198053        0.4793256228       -1.8230032349
 C         -2.4304646212        0.1127719919       -0.9650153949
 C         -2.2296135426        0.1923907101        0.4060872753
 C         -1.0098995684        0.6398106155        0.8992933998
 H         -0.8527590385        0.6891510661        1.9685887456
 N         -3.2556948742       -0.1958049498        1.2816204110
 S         -4.8057131926        0.3961880565        1.0282209454
 O         -4.7743969173        1.6876060526        0.3826059976
 O         -5.4454493144        0.3383625460        2.3240278820
 C         -5.5568611185       -0.8089535781       -0.0452530878
 C         -6.0938336654       -0.4131002573       -1.2545417986
 C         -6.6806181100       -1.3669782446       -2.0715940798
 C         -6.7204106286       -2.6922721163       -1.6663294127
 C         -6.1795898273       -3.0728917138       -0.4470791125
 C         -5.5926365210       -2.1241513421        0.3747775455
 H         -5.1657036540       -2.3787129422        1.3305177784
 H         -6.2132409042       -4.1044287246       -0.1353042299
 H         -7.1761003291       -3.4330754790       -2.3042609100
 H         -7.1024833837       -1.0728834865       -3.0192683411
 H         -6.0362993278        0.6279586968       -1.5304658410
 H         -3.0026127820       -0.1508658507        2.2579799229
 H         -3.3765370742       -0.2324949502       -1.3483109856
 H         -1.5599578586        0.4186652732       -2.8900554276
 H          0.6024057758        1.2045412160       -2.0007737250
 H          1.3370727108        1.2418699184        1.6785705462
 C          1.4976316140        3.0022472168        0.4988726747
 C          0.6726970661        3.8748359890       -0.3934769693
 C          0.4625375742        3.9147201549        1.0886082714
 H          0.7889370828        4.7841786452        1.6388462975
 H         -0.4396356871        3.4616155736        1.4732161086
 H          1.1674779377        4.7047191722       -0.8742028323
 H         -0.0892913749        3.4140332000       -1.0017826235
 H          2.5333897280        3.3001329434        0.6277231446
