  62
        -98.94371805
 C          1.5964255357        1.5403774953        0.1326905927
 C          1.7221446880        0.6812020264       -0.9861244984
 C          2.8028795627       -0.3178941044       -0.9163007975
 C          3.5801742587       -0.3822873083        0.1796479754
 C          4.7503487601       -1.3061432188        0.3553851832
 C          4.3656594582       -2.6375138911        1.0125782543
 C          3.1770894757       -3.3382812046        0.3559673672
 H          2.2729331443       -2.7569859689        0.5391049098
 H          3.0464213491       -4.2981188386        0.8599234286
 C          3.3186609803       -3.5703998216       -1.1537589242
 H          2.9735934934       -4.5805290277       -1.3841549474
 H          4.3681458274       -3.5132225497       -1.4448442414
 C          2.4968252408       -2.6140715025       -2.0213330265
 H          1.4671622769       -2.5823979454       -1.6550247112
 H          2.4664724120       -3.0213679317       -3.0357483290
 C          3.0260100256       -1.1778640030       -2.1293789897
 H          2.4870522100       -0.6866755983       -2.9451265633
 H          4.0869173537       -1.2000449932       -2.3899220528
 H          4.1179780513       -2.4503680648        2.0598060938
 H          5.2375034809       -3.2937887856        0.9835806268
 H          5.4821109954       -0.8013955285        0.9891012584
 H          5.1992765706       -1.4910926001       -0.6192387399
 O          3.3827698878        0.4085095904        1.2646016163
 C          2.4089319227        1.3918406326        1.2634184260
 O          2.3670424782        2.0669681059        2.3093960251
 O          1.0015195989        0.7408411549       -2.0187338567
 C          0.6184089675        2.7084103526        0.1816589339
 C         -0.7946271830        2.2269081173        0.4029908168
 C         -1.3982950134        2.3428110457        1.6504207671
 C         -2.6747384782        1.8528225344        1.8667460158
 C         -3.3629162041        1.2084737484        0.8536902032
 C         -2.7586300098        1.0722400964       -0.3888397205
 C         -1.4995272836        1.6061466112       -0.6173074138
 H         -1.0340323485        1.4800405112       -1.5827772213
 N         -3.3974875736        0.3079928945       -1.3884295261
 S         -3.7462671106       -1.2671448351       -0.9151434839
 O         -3.5303696093       -2.0917211828       -2.0835418166
 O         -5.0786087731       -1.3087850649       -0.3640806635
 C         -2.5691182561       -1.6392533034        0.3784656660
 C         -1.2241080890       -1.4390912593        0.1345561050
 C         -0.3278496929       -1.5950036670        1.1781966158
 C         -0.7772024099       -1.9797603195        2.4313871109
 C         -2.1260314438       -2.2098464235        2.6509015325
 C         -3.0331704248       -2.0222288535        1.6204580706
 H         -4.0943778950       -2.1527404108        1.7568187079
 H         -2.4737313256       -2.5138189097        3.6249014531
 H         -0.0693262413       -2.0921690815        3.2374894533
 H          0.7177079862       -1.3859288276        1.0100373789
 H         -0.8838021353       -1.1463391732       -0.8466722017
 H         -2.8755963235        0.2934773758       -2.2544121696
 H         -4.3432038291        0.7872325550        1.0104135296
 H         -3.1320143213        1.9581085010        2.8384173640
 H         -0.8496604980        2.8061290329        2.4575765633
 H          0.9121160161        3.2954011405        1.0614358790
 C          0.7326855516        3.5948022586       -1.0438688676
 C          0.2082653242        4.9963606928       -0.9786575665
 C          1.6859191783        4.7498793973       -1.0239972806
 H          2.2235435970        4.9901860674       -1.9290773378
 H          2.2585374491        4.9104665843       -0.1219585481
 H         -0.2718283411        5.4085347975       -1.8529188094
 H         -0.2215667002        5.3254922269       -0.0447272754
 H          0.6272538146        3.0613396219       -1.9792874403
