  62
        -98.94050824
 C         -1.9240753345       -1.4159651658       -0.3739617191
 C         -1.7134907949       -0.2178521686        0.3516654409
 C         -2.9157533624        0.3846247010        0.9457919459
 C         -4.1035278596       -0.2362933623        0.8414421363
 C         -5.4106060417        0.2486954917        1.4070105820
 C         -6.1356720441        1.2671809093        0.5162760445
 C         -5.5060173605        2.6603143249        0.4721905941
 H         -5.3559041505        3.0220862239        1.4899295504
 H         -6.2307751478        3.3231378029       -0.0048644470
 C         -4.1840077996        2.7344335285       -0.3044681638
 H         -4.2008216699        3.6009922581       -0.9691666617
 H         -4.0840402876        1.8490940351       -0.9367097506
 C         -2.9382632361        2.8598160394        0.5728326281
 H         -2.9604324422        3.8118100448        1.1077416606
 H         -2.0624116724        2.8601707488       -0.0809863780
 C         -2.7717200718        1.7279454203        1.5952200454
 H         -3.4949367364        1.8412941166        2.4024280295
 H         -1.7654758120        1.7865322660        2.0181373986
 H         -7.1549215181        1.3645801662        0.8973394226
 H         -6.1983068940        0.8631685933       -0.4969979942
 H         -5.2458223058        0.6795008137        2.3951639889
 H         -6.0489710069       -0.6311107949        1.5140135308
 O         -4.2490112779       -1.4297957103        0.2052928792
 C         -3.1751134843       -2.0355057402       -0.4285598018
 O         -3.4542617843       -3.1154382093       -0.9869853021
 O         -0.5939623980        0.3310208734        0.5028396351
 C         -0.7853822429       -2.1211837269       -1.0899873481
 C          0.4399905505       -2.1607598933       -0.2090193713
 C          0.3225331971       -2.6964699606        1.0714348129
 C          1.4056437483       -2.7358022277        1.9273759302
 C          2.6408813721       -2.2612556223        1.5201258082
 C          2.7732096383       -1.7391418628        0.2418477885
 C          1.6797115788       -1.6924432340       -0.6153230887
 H          1.8015883812       -1.2616115506       -1.5969085698
 N          4.0366702891       -1.2747256079       -0.1830643801
 S          4.6855244966        0.0814801080        0.5546183292
 O          6.0241576815        0.2095664717        0.0230599647
 O          4.5753992666       -0.0641375851        1.9831512205
 C          3.6939584547        1.4506157523       -0.0171905985
 C          2.3877122103        1.5566726567        0.4154531608
 C          1.6054435597        2.5914033738       -0.0717780186
 C          2.1373748658        3.4984182251       -0.9744844767
 C          3.4532324299        3.3793617477       -1.3971452562
 C          4.2392726932        2.3434368910       -0.9198123256
 H          5.2650410759        2.2091895554       -1.2235193912
 H          3.8653304383        4.0865251656       -2.0991967663
 H          1.5222129493        4.3004155844       -1.3518377712
 H          0.5787240143        2.6563857771        0.2504186055
 H          1.9797031773        0.8367910880        1.1059933013
 H          4.1039581324       -1.1615505031       -1.1852915847
 H          3.4928964305       -2.2695999478        2.1797987414
 H          1.2910079315       -3.1430151784        2.9209831374
 H         -0.6413217082       -3.0680613278        1.3939558748
 H         -1.1330782758       -3.1587511161       -1.2254452026
 C         -0.5064388305       -1.5688419279       -2.4816162740
 C         -1.5557127426       -0.8208796018       -3.2473452360
 C         -0.3490057878       -0.0992094169       -2.7316158023
 H          0.3953039186        0.2261508786       -3.4441240576
 H         -0.4633101989        0.5618168173       -1.8874355228
 H         -1.6372935948       -0.9998827532       -4.3090698795
 H         -2.5054737949       -0.6488069621       -2.7619580760
 H          0.1228902993       -2.2346861510       -3.0645173167
