  62
        -98.93623424
 C          2.8636483509        0.0427012408        0.3338887436
 C          2.8064999457        0.8165685075       -0.8557331037
 C          2.3971997386        2.2162938784       -0.7062612111
 C          2.1596859603        2.7103064121        0.5220469494
 C          1.7455088862        4.1193904296        0.8488741275
 C          0.2308570155        4.3522894747        0.7621957907
 C         -0.3397336909        4.3752557178       -0.6565318483
 H          0.2269409900        5.0825779886       -1.2627765953
 H         -1.3624653588        4.7510964660       -0.5882487076
 C         -0.3614679983        3.0069595008       -1.3529687344
 H         -1.3310075834        2.8446747620       -1.8306073512
 H         -0.2429732491        2.2099515574       -0.6139152249
 C          0.7022727772        2.8255234138       -2.4361747270
 H          0.5150362579        3.5249070051       -3.2542523872
 H          0.6040421167        1.8104042134       -2.8315524809
 C          2.1461706293        3.0144578806       -1.9489324056
 H          2.3500701897        4.0709787906       -1.7755905763
 H          2.8213785591        2.6478083643       -2.7257273164
 H          0.0206233184        5.3158661088        1.2316664253
 H         -0.2736465313        3.5789050093        1.3461271217
 H          2.2620201759        4.8161935107        0.1888669884
 H          2.0651021720        4.3081033461        1.8759921910
 O          2.2818606119        1.9551710061        1.6434796563
 C          2.5627662024        0.5911611151        1.5805401991
 O          2.5129254978        0.0294729344        2.6898523810
 O          3.0817863987        0.3480828449       -1.9925515747
 C          3.1364527655       -1.4392633403        0.1409692199
 C          1.8667775671       -2.1057030478       -0.3327481495
 C          1.8707539972       -3.0172641034       -1.3804949438
 C          0.6856131557       -3.5660409574       -1.8407242317
 C         -0.5245959799       -3.2091329074       -1.2745658579
 C         -0.5386129380       -2.2975863372       -0.2265974636
 C          0.6511904845       -1.7645048171        0.2437926158
 H          0.6354574354       -1.0543694287        1.0607972121
 N         -1.7742494845       -1.9000529586        0.3329506570
 S         -2.8132566986       -1.1884180029       -0.8060440187
 O         -3.5094601523       -2.2480796827       -1.4918117426
 O         -2.0732351391       -0.2721380581       -1.6432692729
 C         -3.9430462230       -0.2969899393        0.2436872923
 C         -5.0344764465       -0.9577839350        0.7739521139
 C         -5.8946703156       -0.2630197437        1.6094203446
 C         -5.6492572832        1.0709338625        1.8995369963
 C         -4.5491858707        1.7203542149        1.3593468139
 C         -3.6842643375        1.0313276112        0.5239277106
 H         -2.8217774467        1.4981999869        0.0739739685
 H         -4.3615511877        2.7579300040        1.5843302465
 H         -6.3209160731        1.6102484934        2.5485853204
 H         -6.7524939600       -0.7623637280        2.0299630564
 H         -5.1883510763       -1.9915714898        0.5126581514
 H         -1.6308849815       -1.2563185521        1.1012404691
 H         -1.4589905777       -3.5991832380       -1.6448459380
 H          0.7024444844       -4.2675802875       -2.6610667310
 H          2.8061632002       -3.2731914292       -1.8561792361
 H          3.8605079017       -1.4979046977       -0.6877502839
 C          3.7581006043       -2.1313538519        1.3423876031
 C          2.9897388747       -3.0457617054        2.2437533315
 C          4.0159299899       -3.6087052541        1.3096576343
 H          4.9430674349       -3.9784447657        1.7201352796
 H          3.6589737322       -4.1594833019        0.4527038866
 H          3.2066980221       -3.0046345044        3.2998582116
 H          1.9483132805       -3.2207855671        2.0215323820
 H          4.5142819684       -1.5154213542        1.8167708024
