  62
        -98.94308573
 C          1.4747342312        1.1187334201       -0.0375584387
 C          2.4988025509        0.6421155800        0.8103502616
 C          2.9807249810       -0.7238658100        0.5505647117
 C          2.4220967813       -1.4426518698       -0.4386295686
 C          2.7034064715       -2.8698365298       -0.8383964087
 C          4.1671409815       -3.3287165598       -0.8675531882
 C          5.1753399216       -2.2483073798       -1.2855107477
 H          5.8075007819       -2.6426906597       -2.0830913675
 H          4.6474047518       -1.3808261597       -1.6849766878
 C          6.0867091612       -1.8066929499       -0.1382094473
 H          6.4072270010       -2.6919811100        0.4151890627
 H          6.9814118114       -1.3417377599       -0.5589816869
 C          5.4718723709       -0.8036122700        0.8368799626
 H          6.1759814605       -0.6590920801        1.6597860728
 H          5.3505524610        0.1651044400        0.3446909826
 C          4.1067125106       -1.2005968701        1.4228665620
 H          3.9860583603       -0.6817159902        2.3781000520
 H          4.0490414306       -2.2713644301        1.6042981419
 H          4.4464965911       -3.7179648499        0.1104658819
 H          4.2195558417       -4.1665466297       -1.5649811983
 H          2.2667092318       -2.9761634597       -1.8345802889
 H          2.1316854612       -3.5199371599       -0.1687034290
 O          1.4373509816       -0.9422413997       -1.2352821589
 C          0.9284841016        0.3292124202       -1.0467549790
 O          0.0137795419        0.6403564803       -1.8352204493
 O          2.9789988205        1.3231833399        1.7580568419
 C          0.8919063811        2.4996489501        0.1977457212
 C         -0.5995113290        2.3997479901        0.4059091207
 C         -1.5065466188        3.3125216302       -0.1183594696
 C         -2.8662389888        3.1482442102        0.0841109199
 C         -3.3511582691        2.0627785701        0.7903767596
 C         -2.4507153393        1.1517306700        1.3296097898
 C         -1.0897629492        1.3421912100        1.1616527204
 H         -0.4060249294        0.6237916000        1.5903341505
 N         -2.8867333496        0.0117767799        2.0395613696
 S         -2.5515255893       -1.4756964000        1.3390725595
 O         -3.1527406997       -2.4503591601        2.2250590492
 O         -1.1356873093       -1.6078394800        1.1129555700
 C         -3.4552657288       -1.4457046998       -0.1990874908
 C         -2.9263047784       -0.7815657797       -1.2874402006
 C         -3.6809387279       -0.7050961696       -2.4489535308
 C         -4.9387560179       -1.2848747195       -2.5021851314
 C         -5.4546569083       -1.9480914497       -1.3985695616
 C         -4.7097608188       -2.0253510598       -0.2335179114
 H         -5.0659712691       -2.5328986599        0.6485039485
 H         -6.4319948983       -2.4011328396       -1.4417330820
 H         -5.5183512276       -1.2200381594       -3.4095510316
 H         -3.2712902476       -0.1880880195       -3.3019014206
 H         -1.9422689084       -0.3414164897       -1.2314309101
 H         -3.8672959197        0.0407218799        2.2862354692
 H         -4.4126854892        1.9175591101        0.9235121992
 H         -3.5580420387        3.8646073002       -0.3316868503
 H         -1.1483673585        4.1505669102       -0.6936883593
 H          1.3519655108        2.8593074500        1.1307154414
 C          1.2777840115        3.4359678302       -0.9295283485
 C          1.4821453215        4.8978703302       -0.6687748583
 C          2.6599629616        4.0144162302       -0.9460815479
 H          3.1683448319        4.1096214503       -1.8938204877
 H          3.3126641113        3.7555662201       -0.1250188977
 H          1.1844640418        5.6040502803       -1.4291879783
 H          1.3428676311        5.2501619001        0.3420616317
 H          0.8487421819        3.1375827203       -1.8797851887
