  62
        -98.93836456
 C         -1.1242553026       -1.5269816009        0.2385402959
 C         -1.3954574398       -0.5329947822       -0.7282404940
 C         -2.4433245161        0.4584451862       -0.3914403665
 C         -3.0389604174        0.3977882263        0.8134893796
 C         -4.1304316312        1.2761550607        1.3656933762
 C         -5.5113794297        0.9349045215        0.7837083654
 C         -5.5315348176        0.7084139925       -0.7256199057
 H         -6.5360531336        0.3743690479       -0.9984003820
 H         -4.8430181918       -0.1005373035       -0.9768837635
 C         -5.2025317449        1.9359250525       -1.5721454251
 H         -5.9161887541        2.7306799515       -1.3437788572
 H         -5.3437269233        1.6548501111       -2.6190140946
 C         -3.7865331284        2.4964521737       -1.4198521539
 H         -3.6896753249        3.0790662467       -0.5076977246
 H         -3.6215642333        3.1916587112       -2.2483561557
 C         -2.6745524925        1.4549393172       -1.5024103312
 H         -1.7202156052        1.9788200866       -1.6399877492
 H         -2.8067234259        0.8629974507       -2.4157448944
 H         -6.2036854480        1.7375195410        1.0430800123
 H         -5.8627505565        0.0176100631        1.2622850125
 H         -4.1559013410        1.1025824439        2.4437522490
 H         -3.8914025588        2.3229048735        1.2026987165
 O         -2.7246616903       -0.5636820313        1.7274570099
 C         -1.7916213674       -1.5440503476        1.4674864164
 O         -1.6419791432       -2.3676873523        2.3913338400
 H          1.5765383679       -0.8415644815       -1.1895966831
 C          1.9928148528       -1.2449930924       -0.2795524193
 C          1.2723935166       -2.1648665855        0.4721747304
 C          1.8325152423       -2.6586139026        1.6456792921
 C          3.0892619139       -2.2529237054        2.0544915912
 C          3.8066736113       -1.3420224347        1.3019998268
 C          3.2544678665       -0.8338875065        0.1308723289
 N          3.9857095824        0.0825082207       -0.6432584007
 S          3.2558346818        1.4624841012       -1.2430882837
 O          2.4241133430        1.1421207234       -2.3716865045
 O          4.3633023932        2.3579921454       -1.5048613853
 C          2.2893953923        2.0864923535        0.1182733644
 C          2.9465428018        2.7508140620        1.1359498717
 C          2.2178950073        3.1908696149        2.2283077843
 C          0.8525563892        2.9530995101        2.2881388376
 C          0.2082684508        2.2868515116        1.2577264773
 C          0.9322269807        1.8472849880        0.1602125796
 H          0.4665901848        1.3259282877       -0.6601252117
 H         -0.8531408501        2.0952363853        1.3010271288
 H          0.2842757533        3.2896477307        3.1409242735
 H          2.7133164728        3.7141353306        3.0301509650
 H          4.0063284562        2.9257109035        1.0453683184
 H          4.8932234007        0.3074022073       -0.2606665266
 H          4.7905022397       -1.0256321644        1.6134876693
 H          3.5122741097       -2.6470026317        2.9657699704
 H          1.2651545776       -3.3574101054        2.2427224599
 C         -0.0998374136       -2.6353590004        0.0479005604
 H         -0.4010328557       -3.4281402614        0.7469427050
 C         -0.0793922531       -3.2248447776       -1.3474105460
 C          0.4569064209       -4.6111780934       -1.5343285165
 C         -1.0118791396       -4.3495430826       -1.6775635766
 H         -1.4509743112       -4.3811040094       -2.6634759085
 H         -1.6706097104       -4.6995537994       -0.8956822174
 H          0.7927831915       -5.1410483398       -0.6555949289
 H          1.0308847332       -4.8245512785       -2.4229830464
 H          0.1160116390       -2.5004907470       -2.1265596525
 O         -0.8112445815       -0.4458430356       -1.8418292452
