  62
        -98.94550489
 C          1.8406366598        1.3149753900       -0.2422980194
 C          3.1343465297        1.2258587200        0.3264804309
 C          3.9708943699        0.1166350901       -0.1492376892
 C          3.4718342601       -0.7397699897       -1.0596079795
 C          4.1890879503       -1.9526808895       -1.5759705197
 C          3.8832216502       -3.1893556497       -0.7189747500
 C          4.0471580599       -2.9587112701        0.7832466801
 H          3.2944204497       -2.2417419302        1.1189465401
 H          3.8337043098       -3.9059975102        1.2829354898
 C          5.4389197897       -2.4639563501        1.2010288105
 H          5.7640157196       -3.0284152103        2.0775687004
 H          6.1577330099       -2.6613292999        0.4048182106
 C          5.4969307196       -0.9828321802        1.5787295108
 H          4.7179665294       -0.7604242804        2.3123882507
 H          6.4608711395       -0.7906565703        2.0575940111
 C          5.3596142898        0.0064776301        0.4147646510
 H          6.0745623199       -0.2483771997       -0.3703530589
 H          5.6081830496        1.0017083800        0.7951282713
 H          2.8516744302       -3.4947006898       -0.9067255103
 H          4.5411441303       -3.9998579696       -1.0378312201
 H          3.8579076605       -2.1393612793       -2.5989177998
 H          5.2600656303       -1.7588862395       -1.5822003394
 O          2.2266337902       -0.6199314696       -1.5853329498
 C          1.3815073401        0.4125471002       -1.2017800897
 O          0.2804647802        0.4126475903       -1.7823990599
 O          3.5671601995        2.0351406498        1.1899864212
 C          0.9200086297        2.4333569399        0.2162542807
 C         -0.3268286004        1.8156791097        0.7960550203
 C         -0.2279612506        1.0868557994        1.9791325602
 C         -1.3303500607        0.4453533692        2.5100815398
 C         -2.5542852506        0.5015334093        1.8647564296
 C         -2.6592400104        1.2166602696        0.6800298497
 C         -1.5553841903        1.8819025097        0.1611299901
 H         -1.6573913901        2.4287167300       -0.7625657898
 N         -3.8851388702        1.2522153397       -0.0039975405
 S         -4.7773474101       -0.1571683504       -0.1021197111
 O         -5.5361686499       -0.0386372301       -1.3283570212
 O         -5.5628006604       -0.3116360207        1.0986403588
 C         -3.6129129100       -1.5073330903       -0.2207173611
 C         -3.8427148201       -2.6432320105        0.5304098385
 C         -2.9607401900       -3.7067115204        0.4303349985
 C         -1.8626346999       -3.6153278501       -0.4113229413
 C         -1.6451565198       -2.4680330999       -1.1576629510
 C         -2.5289010999       -1.4044370400       -1.0691152709
 H         -2.3503474498       -0.5069560999       -1.6388780806
 H         -0.7851356997       -2.3754098797       -1.8022363408
 H         -1.1715679398       -4.4403236401       -0.4853155813
 H         -3.1288906101       -4.5997518705        1.0105522282
 H         -4.7014456402       -2.6666268807        1.1818247784
 H         -3.8414744801        1.7177907399       -0.8987331004
 H         -3.4240174006        0.0018217891        2.2601177893
 H         -1.2380216008       -0.1115422910        3.4300861297
 H          0.7325336293        1.0239512793        2.4720498103
 H          1.4616910995        2.9476771197        1.0220284209
 C          0.6648636998        3.4188488701       -0.9042344391
 C          0.1621605597        4.7944528300       -0.5858273189
 C          1.5721212898        4.6012721402       -1.0551200086
 H          1.8342159700        4.9253790905       -2.0512196385
 H          2.3720368997        4.7096528401       -0.3375576284
 H         -0.5439426202        5.2564181101       -1.2592289189
 H          0.0018054095        5.0374826998        0.4535961512
 H          0.3165861701        2.9454449503       -1.8153064593
