  62
        -98.93772103
 C         -1.9681845437       -1.0205752222        0.0530275121
 C         -2.3085531728       -0.0575752007        1.0297995044
 C         -2.4493315186        1.3261767561        0.5557438701
 C         -2.2218356477        1.5982878115       -0.7423497220
 C         -2.3806110214        2.9452182974       -1.3895655194
 C         -3.8745482969        3.2496422817       -1.6221564611
 C         -4.4116898016        4.4285311566       -0.8103582880
 H         -4.0627226806        5.3590011485       -1.2627342941
 H         -5.5006112828        4.4103591801       -0.8891802015
 C         -4.0193436833        4.4517321527        0.6699488034
 H         -3.0013290363        4.8299475592        0.7745545535
 H         -4.6732129132        5.1751762725        1.1614482672
 C         -4.1215246139        3.1126601153        1.4113828084
 H         -4.8360118119        2.4528612155        0.9189959107
 H         -4.5063480235        3.3078649869        2.4143206404
 C         -2.7824203849        2.3713603780        1.5847453692
 H         -1.9640058059        3.0952844978        1.6427545600
 H         -2.8030178149        1.8284228271        2.5346749144
 H         -4.0420305358        3.4574399509       -2.6799437474
 H         -4.4461906926        2.3504239973       -1.3837061313
 H         -1.9246890864        3.7069640893       -0.7606662982
 H         -1.8436614080        2.9114752922       -2.3378741982
 O         -1.8926714598        0.6453696200       -1.6525644441
 C         -1.7352151676       -0.6792912560       -1.2790006310
 O         -1.4111249482       -1.4426571575       -2.2092792779
 H          0.4347750893       -0.9863788205        0.8942454772
 C          0.6863276956       -1.9407693266        0.4530486710
 C         -0.3203258115       -2.8563296791        0.1728249123
 C          0.0331542026       -4.0821317785       -0.3760607066
 C          1.3572784575       -4.3616713868       -0.6681470946
 C          2.3488010647       -3.4275177984       -0.4337875747
 C          2.0071936136       -2.2054169315        0.1354834108
 N          2.9871857047       -1.2346614826        0.4116120980
 S          2.5586128070        0.3902677879        0.2338230486
 O          1.9151186183        0.8358832303        1.4455400137
 O          1.8259992738        0.5909039986       -0.9961859892
 C          4.1792131482        1.1271159121        0.1170883015
 C          4.8798332944        1.3810689584        1.2812275909
 C          6.1546322117        1.9174035010        1.1922950784
 C          6.7051007086        2.1883320330       -0.0517952708
 C          5.9891733321        1.9303581283       -1.2112480031
 C          4.7140714927        1.3927802294       -1.1293876274
 H          4.1159128834        1.1827867680       -2.0019073536
 H          6.4175540894        2.1449923418       -2.1770448218
 H          7.6972764854        2.6057804733       -0.1185031940
 H          6.7126817183        2.1221201176        2.0916503060
 H          4.4059921338        1.1618686268        2.2238528433
 H          3.8692744785       -1.4327224237       -0.0418193091
 H          3.3767249891       -3.6376858770       -0.6872331894
 H          1.6176273744       -5.3150039242       -1.1024842913
 H         -0.7295493756       -4.8131990373       -0.5887527413
 C         -1.7440120075       -2.4595800989        0.4801739433
 H         -1.8767851445       -2.4659629823        1.5729378908
 C         -2.7760484306       -3.3749354323       -0.1444490595
 C         -3.2190040875       -4.6166902180        0.5686740257
 C         -4.1439070234       -3.4427793647        0.4636642557
 H         -4.9972711498       -3.5119332926       -0.1939908551
 H         -4.3206991601       -2.8472590305        1.3475257541
 H         -3.4417539090       -5.4955914710       -0.0172772076
 H         -2.7750671843       -4.8255770021        1.5302134629
 H         -2.7063505168       -3.3979762077       -1.2262763727
 O         -2.4837390575       -0.3438814626        2.2470899213
