  62
        -98.93813892
 C         -2.6668657909       -1.1773598795        0.2179677986
 C         -3.1321863204       -0.2671772998        1.2021286092
 C         -4.3734540302        0.4490274408        0.8938904098
 C         -5.0136780705        0.1995651116       -0.2625765602
 C         -6.3081705304        0.8212610922       -0.7116986696
 C         -6.1422493101        2.1894089825       -1.3870346690
 C         -5.7842472795        3.3396537119       -0.4451672085
 H         -5.9135800094        4.2663129722       -1.0078616080
 H         -6.4913017493        3.3616795717        0.3847110717
 C         -4.3496290794        3.2891120812        0.0989708011
 H         -3.8942528791        4.2786659411        0.0180641115
 H         -3.7504595798        2.6110858613       -0.5132911493
 C         -4.2402759792        2.8593673504        1.5620531509
 H         -3.1810414292        2.8224450299        1.8294248706
 H         -4.7233092388        3.6030173503        2.1998344614
 C         -4.8526731596        1.4854640405        1.8647007804
 H         -4.5319041495        1.1788011599        2.8633492402
 H         -5.9407517996        1.5466149609        1.8500284007
 H         -5.3801435803        2.1045094126       -2.1650874692
 H         -7.0900192302        2.4288075630       -1.8747404186
 H         -6.9845691302        0.9131330820        0.1386285806
 H         -6.7493491308        0.1316936227       -1.4346011098
 O         -4.5478444510       -0.6923456782       -1.1737905707
 C         -3.3549322612       -1.3821463086       -0.9791547013
 O         -3.0515595217       -2.1246335483       -1.9296309418
 O         -2.5379952100       -0.0737231705        2.2972933691
 C         -1.3811183911       -1.9171081100        0.5393020480
 C         -0.1754871609       -1.1731539702        0.0243623580
 C         -0.0943025811       -0.7478699096       -1.2978063818
 C          1.0325347690       -0.0869976997       -1.7525712717
 C          2.0958736293        0.1657740795       -0.9032520118
 C          2.0239864995       -0.2507329811        0.4187907580
 C          0.8915323394       -0.9149876510        0.8723894079
 H          0.8349845295       -1.2281859114        1.9065858878
 N          3.1007322698        0.0096927581        1.2844291278
 S          4.6247752195       -0.5187035822        0.8092332872
 O          4.5294226089       -1.6615875417       -0.0686683033
 O          5.3596408997       -0.7102239030        2.0402044570
 C          5.3107414897        0.8710636480       -0.0660993623
 C          5.7243312394        0.7224602185       -1.3753371324
 C          6.2669172596        1.8147060986       -2.0344335720
 C          6.3859788602        3.0288654083       -1.3757229815
 C          5.9678818005        3.1607497678       -0.0597282213
 C          5.4258277703        2.0726253677        0.6051973183
 H          5.0944592405        2.1318082373        1.6285126784
 H          6.0629688709        4.1064828175        0.4491129391
 H          6.8081948203        3.8773012584       -1.8907293412
 H          6.5935761893        1.7139979590       -3.0570302321
 H          5.6087943989       -0.2398089112       -1.8483520729
 H          2.9206322199       -0.2466722123        2.2447332778
 H          2.9751036594        0.6806483994       -1.2547697518
 H          1.0835572189        0.2353248207       -2.7816127116
 H         -0.9200977113       -0.9492501090       -1.9637570317
 H         -1.3255563708       -1.9056980006        1.6399923280
 C         -1.3986942816       -3.3774525398        0.1092207773
 C         -0.5866579721       -3.9262368996       -1.0209735632
 C         -0.2171003919       -4.2582958804        0.3916630566
 H         -0.3909999121       -5.2598988205        0.7546790961
 H          0.6697144784       -3.7906095808        0.7942918366
 H         -1.0399677625       -4.6879777491       -1.6364076334
 H          0.0538444380       -3.2527961095       -1.5679934730
 H         -2.3781751218       -3.8236058796        0.2503790073
