  62
        -98.93688075
 C         -2.4139439191       -1.0833529599       -0.2023086735
 C         -2.4814731910        0.1514685301        0.4895427617
 C         -3.8327564259        0.5971059483        0.8621111064
 C         -4.8969480382       -0.1807483460        0.5978596062
 C         -6.3304173006        0.1316473318        0.9314003125
 C         -7.0308034908        1.0206728018       -0.1053979316
 C         -6.5926639257        2.4858159204       -0.1085693268
 H         -7.3099828296        3.0328911170       -0.7234918154
 H         -6.6592308398        2.8860314973        0.9035264760
 C         -5.1826334018        2.7252360749       -0.6665457743
 H         -4.8618787542        1.8501568986       -1.2367957772
 H         -5.2035466323        3.5677045277       -1.3615957023
 C         -4.1265003919        3.0390689064        0.3934402427
 H         -3.1615729561        3.1546548647       -0.1074784578
 H         -4.3669023166        3.9864750090        0.8808873132
 C         -3.9740967428        1.9588042306        1.4724338944
 H         -4.8239547891        1.9851683212        2.1539415598
 H         -3.0620522336        2.1639717387        2.0384133330
 H         -6.8728568257        0.5910912912       -1.0974106350
 H         -8.1020739769        0.9846894022        0.1053593408
 H         -6.3841600642        0.6030373804        1.9130197939
 H         -6.8546777326       -0.8253761419        0.9750265915
 O         -4.7814112567       -1.3941398908       -0.0055815616
 C         -3.5499578389       -1.8642237415       -0.4313139778
 O         -3.5945859320       -2.9835508944       -0.9803332347
 O         -1.4824133896        0.8541541611        0.7888764251
 C         -1.0941533635       -1.6541300232       -0.6900615807
 C         -0.0347077141       -1.5218755204        0.3759470817
 C         -0.2228990807       -2.1811400730        1.5885616240
 C          0.7230873087       -2.1002205086        2.5912675935
 C          1.8881908804       -1.3783952398        2.3991551708
 C          2.0826509949       -0.7127302702        1.1954088727
 C          1.1236667412       -0.7847798514        0.1946421407
 H          1.2933609264       -0.2392877474       -0.7184950319
 N          3.2407861697        0.0505912570        0.9768197605
 S          3.8953494652        0.0859694646       -0.5775259282
 O          3.2401809782        1.1132188216       -1.3471604672
 O          3.8849982159       -1.2425197401       -1.1492412760
 C          5.5677507277        0.5870661446       -0.2111102934
 C          6.5549708600       -0.3739034147       -0.0998273897
 C          7.8446600058        0.0232672576        0.2167595477
 C          8.1231907791        1.3667029833        0.4187094756
 C          7.1221267487        2.3198996214        0.3025060444
 C          5.8308574134        1.9298376338       -0.0150953434
 H          5.0228579256        2.6344134897       -0.1248305626
 H          7.3429626573        3.3637211172        0.4570884525
 H          9.1273456613        1.6733934776        0.6654893468
 H          8.6256661553       -0.7147433164        0.3043399996
 H          6.2935427603       -1.4053627501       -0.2738201880
 H          3.9501368156       -0.0950524391        1.6818254041
 H          2.6321182427       -1.3196399388        3.1792495987
 H          0.5587635008       -2.6123098729        3.5276264294
 H         -1.1302708941       -2.7525716330        1.7344695008
 H         -1.2846706485       -2.7309258886       -0.8374395794
 C         -0.6470812590       -1.1059032794       -2.0372573737
 C         -1.6441269974       -0.6922345204       -3.0768516790
 C         -0.7938394371        0.3394236376       -2.4015693976
 H          0.0023140750        0.8068634448       -2.9633802325
 H         -1.2518251149        0.9928254809       -1.6758513975
 H         -1.4399025326       -0.9361389766       -4.1085268475
 H         -2.6907545081       -0.7457642370       -2.8137393947
 H          0.2456389793       -1.6080281065       -2.4009885495
