  62
        -98.93568442
 C         -1.9554314647       -0.5408490120        0.1723076601
 C         -2.6584285382        0.6865728226        0.2917239802
 C         -4.0432392629        0.7083235318       -0.1998555666
 C         -4.5611019324       -0.4110567206       -0.7367360876
 C         -5.9762270726       -0.5812816344       -1.2112335079
 C         -6.9182502086       -0.7692246688       -0.0050041503
 C         -7.9247230677        0.3646695991        0.1907098241
 H         -8.7170336069        0.2688508559       -0.5547108548
 H         -8.3800036692        0.2318650809        1.1744551901
 C         -7.3579766391        1.7842601795        0.0914160863
 H         -7.2397172507        2.0601868919       -0.9575052575
 H         -8.1109711496        2.4573192928        0.5069941394
 C         -6.0272975919        2.0278214529        0.8152259575
 H         -5.8901415290        1.3074867334        1.6220638074
 H         -6.0672952717        3.0167979117        1.2765689128
 C         -4.7878521204        2.0108129421       -0.0990509567
 H         -5.0681262608        2.3492138518       -1.1006069831
 H         -4.0544970662        2.7218036083        0.2931850749
 H         -7.4725401521       -1.7021183550       -0.1179247695
 H         -6.3069738266       -0.8740104734        0.8937855411
 H         -6.2734260069        0.2848572712       -1.7983063846
 H         -5.9993483087       -1.4628389559       -1.8521139739
 O         -3.8577507110       -1.5653218190       -0.8419832227
 C         -2.5453834125       -1.6673036018       -0.4013326833
 O         -2.0500400023       -2.7955581117       -0.5869122659
 H          1.3924969389        1.3364600500        0.5804296472
 C          1.4146105139        0.6789825121       -0.2753833566
 C          0.4881233421       -0.3468596721       -0.3927557118
 C          0.5419686033       -1.1725551302       -1.5113991511
 C          1.4947343093       -0.9629268509       -2.4911619950
 C          2.4271220802        0.0523298642       -2.3633242402
 C          2.3887957791        0.8753792475       -1.2451924313
 N          3.3349565631        1.9049637047       -1.0675269001
 S          4.3038289347        1.8345207466        0.2977885119
 O          3.4948707257        1.9664958158        1.4811299863
 O          5.3188700332        2.8429293095        0.0929305875
 C          5.0379452646        0.2097830286        0.2229232427
 C          4.3110299440       -0.8773879149        0.6666247563
 C          4.8528813345       -2.1451988550        0.5249824425
 C          6.1035830114       -2.3039424257       -0.0518088409
 C          6.8224463293       -1.2014314816       -0.4884473481
 C          6.2835287595        0.0681353315       -0.3572469197
 H          6.8067492241        0.9533908414       -0.6810684651
 H          7.7963582854       -1.3275630625       -0.9332605755
 H          6.5196367332       -3.2931211576       -0.1601517856
 H          4.2915575192       -3.0018572914        0.8618914550
 H          3.3421386893       -0.7214994437        1.1120491199
 H          3.9139370394        2.0666456470       -1.8802096381
 H          3.1760133938        0.2093502634       -3.1249698774
 H          1.5191021787       -1.6047276459       -3.3586473102
 H         -0.1731320321       -1.9749427684       -1.6060928117
 C         -0.5320256388       -0.5578403108        0.7008690524
 H         -0.4688351768        0.3056097365        1.3776811290
 C         -0.1881358839       -1.8061413866        1.4912768268
 C          0.8868359348       -1.7300727851        2.5322630371
 C         -0.5474854324       -1.8754723582        2.9434497558
 H         -0.8782704340       -2.8204888013        3.3470247973
 H         -1.0421806948       -1.0185190716        3.3775690976
 H          1.5439350559       -2.5767104129        2.6595046590
 H          1.3621993494       -0.7732672274        2.6961621312
 H         -0.2718957783       -2.7172928116        0.9135213704
 O         -2.1458087055        1.7231544321        0.7954328009
