  62
        -98.94341392
 C         -2.2850262149       -0.5516674178        0.0105875016
 C         -3.2070522423       -0.3145843317        1.0661784087
 C         -4.1731597894        0.7680818622        0.8601204408
 C         -4.1304780710        1.4891328289       -0.2743957065
 C         -5.0327745599        2.6392924231       -0.6298641633
 C         -6.3748925095        2.2126769247       -1.2405287339
 C         -7.3674640751        1.5883622684       -0.2588794299
 H         -7.4857195021        2.2451471814        0.6034671267
 H         -8.3327045712        1.5407914997       -0.7669132290
 C         -6.9889735656        0.1776381590        0.2136060767
 H         -6.2402750528       -0.2440040501       -0.4611532366
 H         -7.8663073340       -0.4711305859        0.1622493819
 C         -6.4585254604        0.1093272776        1.6457850554
 H         -6.1874087830       -0.9272617685        1.8614050981
 H         -7.2464287350        0.4031286325        2.3427586631
 C         -5.2255262346        0.9849046284        1.9051808699
 H         -5.5116837873        2.0356684312        1.9440611625
 H         -4.7994013050        0.7008048527        2.8703092540
 H         -6.1805920978        1.5129895864       -2.0567968141
 H         -6.8349438049        3.1052278505       -1.6708207634
 H         -4.4951775646        3.2405703876       -1.3662310852
 H         -5.2121853607        3.2510934651        0.2546549861
 O         -3.2164925377        1.2525780368       -1.2502523076
 C         -2.2910061051        0.2230726511       -1.1490699229
 O         -1.5528732193        0.1301259986       -2.1522578280
 O         -3.2230447672       -0.9861900065        2.1312666203
 C         -1.3194941602       -1.7084353066        0.2059976900
 C          0.0641173115       -1.2493177241        0.6013180908
 C          0.6169170706       -1.6291563697        1.8188191300
 C          1.9000933289       -1.2411469037        2.1625929185
 C          2.6561108668       -0.4651159885        1.3025891157
 C          2.1111559718       -0.0755055116        0.0861403562
 C          0.8268568766       -0.4711331754       -0.2580873213
 H          0.4081402243       -0.1631331000       -1.2049522268
 N          2.8671260843        0.7300662407       -0.7882479867
 S          4.3521204483        0.1213643198       -1.2901403542
 O          4.6353942104        0.7843171927       -2.5443365020
 O          4.3498950176       -1.3236151289       -1.3132171187
 C          5.4950765378        0.7061225555       -0.0560636438
 C          6.2612846049       -0.1966814540        0.6549687917
 C          7.1523577744        0.2815172309        1.6032222583
 C          7.2613281392        1.6463640505        1.8214732482
 C          6.4863124211        2.5400281647        1.0969961873
 C          5.5943921990        2.0687350519        0.1469451050
 H          4.9772032369        2.7282122082       -0.4402489912
 H          6.5743644168        3.6006677244        1.2691772331
 H          7.9547433937        2.0162750814        2.5601748136
 H          7.7561158996       -0.4114304792        2.1668813577
 H          6.1378598516       -1.2488529168        0.4541348174
 H          2.3356655070        1.0414666627       -1.5896001451
 H          3.6553458306       -0.1578972854        1.5649352083
 H          2.3160156960       -1.5448969706        3.1109979185
 H          0.0292484289       -2.2267701967        2.5003866923
 H         -1.7318006513       -2.2791926896        1.0491202855
 C         -1.2421838354       -2.6274257134       -0.9989604634
 C         -0.7765614467       -4.0384729408       -0.8088188204
 C         -2.2149748073       -3.7594521597       -1.1242914801
 H         -2.5890235704       -4.0105362519       -2.1055295565
 H         -2.9426640832       -3.8819622504       -0.3352593414
 H         -0.1566275685       -4.4823567211       -1.5726837560
 H         -0.5293440982       -4.3521368635        0.1939817474
 H         -0.9506012859       -2.1202073887       -1.9098412176
