  62
        -98.93892843
 C         -1.6755604488       -0.5038998583        0.1710948355
 C         -2.8247805193       -0.4916279865        1.0035877829
 C         -3.9500990150        0.3633615250        0.5910361779
 C         -3.8461803977        1.0848811824       -0.5401229474
 C         -4.7979513008        2.0671338990       -1.1900581903
 C         -6.2589938382        2.1421467341       -0.7547296777
 C         -7.0917105865        0.9065698771       -1.0947150224
 H         -8.0829257000        1.0310696588       -0.6532680870
 H         -7.2147781365        0.8586164672       -2.1796867353
 C         -6.5082425419       -0.4282592519       -0.6381048690
 H         -7.1986173856       -1.2176502442       -0.9476034019
 H         -5.5619913580       -0.6099035265       -1.1517700329
 C         -6.2903686952       -0.5660953619        0.8674651895
 H         -7.2210034842       -0.3485547461        1.3951193331
 H         -6.0286983581       -1.6086093273        1.0674915441
 C         -5.1738970620        0.3118452574        1.4594269563
 H         -4.8590729625       -0.1353767996        2.4067477631
 H         -5.5324764442        1.3152874189        1.6766540373
 H         -6.3249011985        2.3663151406        0.3058976786
 H         -6.6981366672        2.9916981458       -1.2849401344
 H         -4.3448410523        3.0551826965       -1.0514472702
 H         -4.7549049219        1.8575368407       -2.2636613046
 O         -2.7181867247        1.0509224784       -1.3049783254
 C         -1.6191635967        0.2691658488       -0.9866916155
 O         -0.6891996167        0.3726925089       -1.8128689938
 O         -2.9081277022       -1.1748626749        2.0589025830
 C         -0.5376101868       -1.4140790497        0.5994937172
 C          0.5826072133       -0.6653935948        1.2800391988
 C          1.0361997835       -1.0422823149        2.5385420849
 C          2.0991340518       -0.3845289662        3.1340364757
 C          2.7290668532        0.6653672225        2.4893774293
 C          2.2749814411        1.0546329111        1.2368469497
 C          1.2177145030        0.3875920113        0.6373970008
 H          0.8826978076        0.6895084440       -0.3438035128
 N          2.9235335172        2.1152831686        0.5588193993
 S          4.4604305232        1.7222513328        0.0120056139
 O          5.3340979822        1.5855808034        1.1494579263
 O          4.8155705471        2.7418392087       -0.9487464318
 C          4.2491157072        0.1457713620       -0.7936007203
 C          4.4311114089       -1.0144903570       -0.0685559590
 C          4.1773133829       -2.2309097599       -0.6807904667
 C          3.7440063079       -2.2645411165       -1.9971775941
 C          3.5619090843       -1.0899292278       -2.7103881864
 C          3.8111312359        0.1294340556       -2.1024377488
 H          3.6824981635        1.0648281977       -2.6237518384
 H          3.2188169225       -1.1187336462       -3.7322879424
 H          3.5471548361       -3.2119778768       -2.4744215075
 H          4.3131179374       -3.1461791858       -0.1276472680
 H          4.7703737481       -0.9441409423        0.9518141077
 H          2.3815232822        2.4511907729       -0.2262272585
 H          3.5688170006        1.1800142363        2.9274620162
 H          2.4407548484       -0.6915940197        4.1107070884
 H          0.5448062310       -1.8535543837        3.0550103570
 H         -0.9828259765       -2.0940252499        1.3379725131
 C          0.0268346107       -2.2446719482       -0.5384866812
 C          0.6576518674       -3.5673781953       -0.2290952840
 C         -0.6657934859       -3.5137188459       -0.9301646439
 H         -0.7107292459       -3.7728282192       -1.9771390921
 H         -1.5506671045       -3.7905495331       -0.3753574198
 H          1.5260267412       -3.8655100381       -0.7942541601
 H          0.6702890113       -3.8866132239        0.8017293901
 H          0.4629589050       -1.6481394347       -1.3295616037
