  62
        -98.93894241
 C         -1.6825432405       -0.5073150905        0.1650855787
 C         -2.8308848804       -0.4937157722        0.9986892188
 C         -3.9582730604        0.3574142387        0.5837067906
 C         -3.8563220105        1.0753411010       -0.5499364179
 C         -4.8092657305        2.0548710524       -1.2022461958
 C         -6.2683675705        2.1343227516       -0.7614212855
 C         -7.1046070906        0.8990647623       -1.0942713280
 H         -8.0927734705        1.0248449914       -0.6464342276
 H         -7.2348661306        0.8501316746       -2.1783681481
 C         -6.5193508606       -0.4359674287       -0.6404775308
 H         -7.2107529206       -1.2251877380       -0.9481047424
 H         -5.5748848606       -0.6172526776       -1.1575289813
 C         -6.2961810104       -0.5751561118        0.8641521689
 H         -6.0300459005       -1.6169558522        1.0620830867
 H         -7.2258481604       -0.3616260729        1.3950900894
 C         -5.1811378204        0.3061121269        1.4534169306
 H         -5.5416154503        1.3092166665        1.6688196527
 H         -4.8647129503       -0.1385126550        2.4014409497
 H         -6.3293881504        2.3623623794        0.2986662550
 H         -6.7080630405        2.9829161227       -1.2926847637
 H         -4.3540747505        3.0430225722       -1.0713098538
 H         -4.7707421006        1.8389384347       -2.2747831862
 O         -2.7294145906        1.0393095826       -1.3163438080
 C         -1.6294008406        0.2596839019       -0.9968526298
 O         -0.7015575106        0.3591244836       -1.8259615096
 H          0.8845627895        0.6741956105       -0.3771809791
 C          1.2125245896        0.3940198584        0.6127959403
 C          0.5744751296       -0.6464226029        1.2727621882
 C          1.0175480697       -0.9941278256        2.5432809174
 C          2.0725804397       -0.3193608068        3.1339597887
 C          2.7048326797        0.7185761145        2.4724429108
 C          2.2613938296        1.0783159072        1.2072625616
 N          2.9108842496        2.1269902686        0.5119300537
 S          4.4564255896        1.7327223796       -0.0084245672
 O          5.3192342597        1.6339653172        1.1411454425
 O          4.8129735195        2.7296645616       -0.9920827052
 C          4.2689072294        0.1334564712       -0.7744113205
 C          3.8553564193        0.0777605940       -2.0900906006
 C          3.6276878592       -1.1598121348       -2.6691107231
 C          3.8068051393       -2.3130887164       -1.9211582255
 C          4.2149637894       -2.2399715492       -0.5983544454
 C          4.4471930795       -1.0052218004       -0.0149405529
 H          4.7672313796       -0.9043721725        1.0090481573
 H          4.3481243294       -3.1387422904       -0.0181915273
 H          3.6279588892       -3.2749910854       -2.3760342775
 H          3.3042417892       -1.2192513627       -3.6960883932
 H          3.7288923493        0.9975355751       -2.6389263387
 H          2.3749872596        2.4412718103       -0.2862038856
 H          3.5380262698        1.2463484736        2.9074458119
 H          2.4058586898       -0.6033909489        4.1204253481
 H          0.5239496097       -1.7954945766        3.0729858758
 C         -0.5401830805       -1.4094961215        0.5991500367
 H         -0.9813203605       -2.0852500630        1.3438594853
 C          0.0277884394       -2.2468683291       -0.5318653751
 C          0.6728928594       -3.5595430098       -0.2093234379
 C         -0.6533316007       -3.5272452783       -0.9064614477
 H         -0.6987979308       -3.7989242562       -1.9502314083
 H         -1.5336033107       -3.8066640095       -0.3456822982
 H          1.5424262493       -3.8555344387       -0.7738107586
 H          0.6921720494       -3.8660338220        0.8252718015
 H          0.4551577593       -1.6553466275       -1.3313859939
 O         -2.9117694804       -1.1723013644        2.0571690474
