  62
        -98.94142265
 C         -1.2387294750       -1.1167661607       -0.0698491753
 C         -1.6596634051       -0.0532185426        0.7611265956
 C         -2.7163440107        0.8196959496        0.2260876804
 C         -3.1781417255        0.6061159836       -1.0177153205
 C         -4.2080925646        1.3980968685       -1.7842457573
 C         -5.4662438346        1.8473250452       -1.0281639541
 C         -5.9437809750        0.8848860295        0.0692113793
 H         -7.0063189975        0.6815992508       -0.0760410298
 H         -5.4152521368       -0.0663655547       -0.0126093581
 C         -5.7624812465        1.4507121814        1.4797638361
 H         -6.0664445390        2.4997229689        1.4775675177
 H         -6.4307591342        0.9178892420        2.1604070221
 C         -4.3505711115        1.3407917894        2.0539448627
 H         -4.3304408815        1.8810466539        3.0034118652
 H         -4.1216113635        0.2946755516        2.2742470087
 C         -3.2267123354        1.8830157665        1.1554193606
 H         -2.3823556497        2.1547823917        1.7952705728
 H         -3.5448663552        2.7709697041        0.6141050307
 H         -5.2953546590        2.8295856619       -0.5896088107
 H         -6.2538616586        1.9697966391       -1.7736205304
 H         -4.4934963726        0.7560899925       -2.6212915573
 H         -3.7105224217        2.2758466357       -2.2080442792
 O         -2.7091873541       -0.4030832802       -1.8054177707
 C         -1.7337412730       -1.2826427332       -1.3617095793
 O         -1.4041897102       -2.1471579229       -2.1961801451
 O         -1.1644261416        0.1655523469        1.9000679683
 C         -0.1562521004       -2.0557553340        0.4260537464
 C          1.0900690484       -1.9252391701       -0.4156696584
 C          1.9059422951       -3.0001260971       -0.7468005514
 C          3.0538409131       -2.8017351229       -1.4946717749
 C          3.4294621054       -1.5343764722       -1.9020469543
 C          2.6229485907       -0.4518838517       -1.5702316408
 C          1.4631930165       -0.6582616014       -0.8417020867
 H          0.8298446114        0.1866625858       -0.6203975136
 N          2.9611327298        0.8559294389       -1.9496574103
 S          2.6288905145        2.1182656142       -0.9030494071
 O          1.2246440749        2.4440126764       -0.9335988138
 O          3.5269895623        3.1727434008       -1.3252434284
 C          3.1204445584        1.5166664891        0.7034144471
 C          2.1827478745        1.2001144614        1.6642936509
 C          2.6156338265        0.6813431923        2.8751530615
 C          3.9684774180        0.4898758170        3.1049220800
 C          4.8999426746        0.8225655621        2.1325131822
 C          4.4739110810        1.3375909400        0.9199894679
 H          5.1670009181        1.6183468038        0.1436570048
 H          5.9526197045        0.6785647350        2.3148030916
 H          4.2975252874        0.0816689923        4.0474954198
 H          1.8825037537        0.4252866677        3.6235810769
 H          1.1324729850        1.3487549438        1.4668921959
 H          3.8650526100        0.9547482698       -2.3875772835
 H          4.3289316257       -1.3820854926       -2.4783581779
 H          3.6720192870       -3.6469883908       -1.7560397257
 H          1.6386188353       -3.9938906478       -0.4271570610
 H          0.0917962964       -1.7031242091        1.4394795441
 C         -0.6764037927       -3.4752350235        0.5185939515
 C         -0.1576664589       -4.4061544682        1.5726075049
 C         -1.5451625345       -3.8514568142        1.6804139690
 H         -2.3830611778       -4.5096806990        1.5062803321
 H         -1.7364564675       -3.0898254311        2.4224234218
 H         -0.0441798815       -5.4510872660        1.3261521582
 H          0.5914621289       -4.0267733349        2.2508635393
 H         -0.9322786957       -3.8866565447       -0.4512385877
