  62
        -98.94596307
 C         -1.2037406177       -0.9450333245       -0.4922895375
 C         -2.3195818327       -1.2310268666        0.3363658816
 C         -3.1018750307       -0.0823315853        0.8073322161
 C         -2.7039819888        1.1591219408        0.4761237172
 C         -3.4234499314        2.4209001387        0.8547019527
 C         -4.4427023277        2.8254184759       -0.2196919474
 C         -5.3607960762        1.6846179933       -0.6583974954
 H         -6.0558287054        2.0916602755       -1.3958716952
 H         -4.7639523457        0.9222691062       -1.1640336103
 C         -6.1517195115        1.0318570325        0.4837831299
 H         -6.1620318997        1.6917801301        1.3520063156
 H         -7.1874177052        0.9015571641        0.1630735804
 C         -5.6390068924       -0.3472051399        0.9031692022
 H         -5.5380976714       -0.9844101694        0.0210820442
 H         -6.3887453896       -0.8051885981        1.5538447911
 C         -4.3058603734       -0.3625173037        1.6622562693
 H         -4.3515009179        0.3336315657        2.5027192470
 H         -4.1608408966       -1.3709368173        2.0610893679
 H         -5.0432416263        3.6503856086        0.1679488907
 H         -3.8977897543        3.1830247851       -1.0962284946
 H         -3.9242483464        2.2726796729        1.8096861180
 H         -2.6850108156        3.2170745625        0.9650948207
 O         -1.6161808509        1.4008806976       -0.2937809587
 C         -0.8399627309        0.3666184540       -0.8004813626
 O          0.1110059925        0.7652600721       -1.5004639213
 H          1.5431872953       -0.4123289655       -0.2001063315
 C          1.6566203457       -1.3757953348        0.2690565996
 C          0.7586298375       -2.3929261025       -0.0202785762
 C          0.9304310717       -3.6295029820        0.5903898383
 C          1.9688381850       -3.8346408071        1.4817433440
 C          2.8363442090       -2.8053995867        1.8001367462
 C          2.6711585314       -1.5650596550        1.1942113019
 N          3.5197787159       -0.4892425178        1.4929571425
 S          2.8783064029        1.0583662706        1.5713193689
 O          3.8108227203        1.7841730593        2.4131533811
 O          1.5079894420        1.0473776519        2.0321787357
 C          3.0078242505        1.7055421003       -0.0798157626
 C          2.1251614731        2.6900413573       -0.4724859560
 C          2.2579672547        3.2442437214       -1.7351756773
 C          3.2655304363        2.8050554424       -2.5782358645
 C          4.1452982467        1.8153637831       -2.1677538455
 C          4.0209823967        1.2601940477       -0.9047837228
 H          4.6823870661        0.4843816641       -0.5562179041
 H          4.9247560063        1.4718836636       -2.8289988151
 H          3.3613734939        3.2337059339       -3.5635967286
 H          1.5665873695        4.0063051106       -2.0574241904
 H          1.3415691016        2.9893299951        0.2058316043
 H          4.1851609940       -0.6568810971        2.2338061190
 H          3.6298348368       -2.9549280924        2.5164495744
 H          2.0923180889       -4.7995307355        1.9496541109
 H          0.2320054215       -4.4256810538        0.3790348188
 C         -0.3923915219       -2.1401878658       -0.9652889282
 H         -1.0739340580       -2.9993669905       -0.8965518390
 C          0.1032345616       -2.0322329377       -2.3936647071
 C          0.4298129441       -3.2861282691       -3.1461029881
 C         -0.7816252550       -2.4844694392       -3.5147258902
 H         -0.7719830916       -1.9215009345       -4.4356799671
 H         -1.7531852688       -2.8801319113       -3.2559820143
 H          0.2782075835       -4.2279739251       -2.6410643114
 H          1.2755707386       -3.2770478547       -3.8159070318
 H          0.7223715442       -1.1621705131       -2.5675292644
 O         -2.6515199532       -2.4041319570        0.6606915968
