  62
        -98.94187865
 C         -2.1704177557       -0.8321148773        0.6215859330
 C         -2.0420848382       -0.1087423431       -0.5894478003
 C         -2.2398120879        1.3437645195       -0.4919655050
 C         -2.4884953862        1.8966744650        0.7091245474
 C         -2.7488423953        3.3555804332        0.9450011158
 C         -4.2462865340        3.6795998884        0.8470750875
 C         -4.9194795936        3.1188638237       -0.4054150961
 H         -4.9094062462        2.0277288244       -0.3566565795
 H         -5.9648272241        3.4335445271       -0.3810153706
 C         -4.2799371245        3.5709601290       -1.7255609874
 H         -5.0723977616        3.8606597173       -2.4186371608
 H         -3.6597089153        4.4515721728       -1.5549943281
 C         -3.4471110493        2.4958262922       -2.4262188898
 H         -4.0343189861        1.5788859454       -2.5191655801
 H         -3.2209035856        2.8440199382       -3.4374759946
 C         -2.1123809519        2.1452312687       -1.7563094900
 H         -1.5368531837        3.0558733129       -1.5747352039
 H         -1.5411275532        1.5185790130       -2.4484763702
 H         -4.7479179255        3.2608423959        1.7223880466
 H         -4.3656822799        4.7641491329        0.8724195282
 H         -2.3941455026        3.6095325328        1.9454227428
 H         -2.1890352020        3.9377473668        0.2153066023
 O         -2.5731386687        1.1729724722        1.8552122254
 C         -2.4028609371       -0.2020200539        1.8424269734
 O         -2.4727323157       -0.7404719152        2.9671720810
 O         -1.7757623739       -0.6494889806       -1.6947587423
 C         -1.9357697515       -2.3335029787        0.6287046706
 C         -0.5455146088       -2.6008024482        0.1034790371
 C         -0.2521872251       -3.5296880958       -0.8856483351
 C          1.0386734146       -3.6562293456       -1.3713067842
 C          2.0619020154       -2.8634852328       -0.8841328612
 C          1.7826668033       -1.9552097915        0.1258488191
 C          0.4953732456       -1.8376964021        0.6184778098
 H          0.2844925728       -1.1077642148        1.3924279018
 N          2.8222445119       -1.1051858115        0.6027104164
 S          2.9117217453        0.3196885294       -0.3132259291
 O          1.9632261310        1.2904513052        0.1962899134
 O          2.8066624062       -0.0268052553       -1.7068316696
 C          4.5733575933        0.8555411934        0.0496523302
 C          5.6197597087        0.2161767620       -0.5865883053
 C          6.9181222265        0.5980517581       -0.2903095655
 C          7.1476154410        1.6067384484        0.6338285048
 C          6.0871381007        2.2390710311        1.2643908824
 C          4.7858092408        1.8600771634        0.9730874617
 H          3.9304957359        2.3286047648        1.4332314285
 H          6.2672352487        3.0246489275        1.9805796339
 H          8.1590124597        1.9035747375        0.8624587879
 H          7.7451586710        0.1096328262       -0.7798255315
 H          5.3913638458       -0.5549149251       -1.3033069964
 H          2.6424163650       -0.8179474376        1.5573797498
 H          3.0620364794       -2.9261359757       -1.2796706714
 H          1.2450590487       -4.3716780585       -2.1527165468
 H         -1.0405562048       -4.1402521982       -1.2948288839
 H         -1.9761424083       -2.6456269641        1.6826064090
 C         -3.0253424879       -3.0509600288       -0.1388715932
 C         -3.3843485491       -4.4643403721        0.2063630801
 C         -4.3217827803       -3.3474609488        0.5510417644
 H         -5.2385455271       -3.2488508545       -0.0104981429
 H         -4.4102350036       -3.0514402591        1.5864057251
 H         -3.6617929363       -5.1354271694       -0.5922978737
 H         -2.8410078656       -4.9353039977        1.0114301401
 H         -3.0682514575       -2.7476167261       -1.1786270426
