  62
        -98.93113872
 C         -2.0798046802       -0.7334912399        0.8456109195
 C         -2.0483873499       -0.1639427200       -0.4518911305
 C         -2.1526539999        1.2998275300       -0.5052296306
 C         -2.2262232403        2.0113620800        0.6331616094
 C         -2.2965346705        3.5105940600        0.7403538193
 C         -3.7067579905        4.0900097699        0.5622312489
 C         -4.2495427701        4.0585486498       -0.8670105813
 H         -5.1399710901        4.6899717797       -0.8849392516
 H         -3.5184465299        4.5057906798       -1.5410725311
 C         -4.6271055498        2.6583774698       -1.3701599113
 H         -4.7196556900        1.9788013898       -0.5200366413
 H         -5.6033001697        2.6976207397       -1.8583045716
 C         -3.6423931795        2.0590303598       -2.3742668210
 H         -3.6367626493        2.6591729498       -3.2867579911
 H         -3.9836431793        1.0537131598       -2.6331618911
 C         -2.2029687296        1.9495801999       -1.8546441906
 H         -1.6296067294        1.3222931499       -2.5424486904
 H         -1.7370370297        2.9345321100       -1.8175103605
 H         -4.3900386506        3.5526329799        1.2236917687
 H         -3.6731950906        5.1307349399        0.8924624688
 H         -1.9417122708        3.7653413301        1.7414841594
 H         -1.6194317703        3.9569276901        0.0110841594
 O         -2.2199426306        1.4275335301        1.8620004794
 C         -2.1357546806        0.0521795101        1.9953843595
 O         -2.1130807809       -0.3479423799        3.1796924695
 H          0.3889638897       -1.2734735997        1.5823914202
 C          0.4779795499       -1.9587145798        0.7461853103
 C         -0.6601965399       -2.6306082299        0.3019016800
 C         -0.5110434795       -3.4897611399       -0.7779441899
 C          0.7189480207       -3.6403181198       -1.4004921696
 C          1.8283184505       -2.9326058197       -0.9800394593
 C          1.6973534101       -2.0856711797        0.1099729606
 N          2.8105268200       -1.2881664696        0.5112385109
 S          2.7613902401        0.2042430304       -0.2958823192
 O          1.8227873798        1.0931015303        0.3600297105
 O          2.5460284605       -0.0491350097       -1.6970357792
 C          4.4276005100        0.7869951805       -0.0411804587
 C          5.4363822802        0.2317068406       -0.8046267184
 C          6.7411954401        0.6478726607       -0.5959100981
 C          7.0144157398        1.6060795707        0.3691720420
 C          5.9914668495        2.1538456707        1.1278789817
 C          4.6838986396        1.7403044806        0.9244980713
 H          3.8558086794        2.1433719505        1.4856369611
 H          6.2055649893        2.8998546307        1.8762578117
 H          8.0306209197        1.9295378808        0.5301733722
 H          7.5391288503        0.2250976207       -1.1847137478
 H          5.1730354705       -0.5028399295       -1.5472302885
 H          2.7634106697       -1.0777922796        1.5013807309
 H          2.7757110307       -3.0076427997       -1.4872398090
 H          0.8011224910       -4.3047056999       -2.2473990895
 H         -1.3507665394       -4.0268731000       -1.1797774202
 C         -1.9226268601       -2.2405708099        1.0350759696
 H         -1.7141670104       -2.3722887599        2.1102222897
 C         -3.2561788400       -2.9274055500        0.7909644293
 C         -3.8108024796       -3.3017432501       -0.5476025709
 C         -3.4325314598       -4.3726112901        0.4333368993
 H         -4.2314687399       -4.9125351501        0.9199366891
 H         -2.5543645897       -4.9703955700        0.2535498095
 H         -4.8618694096       -3.1182893202       -0.7199587612
 H         -3.2003197794       -3.1168042901       -1.4160842007
 H         -3.9809851602       -2.5291378601        1.4987185790
 O         -1.9324395295       -0.8327051000       -1.5094417804
