  62
        -98.93901707
 C         -2.1171808437       -0.7651901683        0.5008625220
 C         -1.9199835892       -0.0498612647       -0.7027954837
 C         -1.8345280928        1.4162219088       -0.5876714538
 C         -1.9388424504        1.9832326708        0.6263327353
 C         -1.8940360505        3.4476951629        0.9689253603
 C         -3.3039079324        4.0633627432        0.9666125767
 C         -3.7728094356        4.5946529240       -0.3870215792
 H         -3.1995697171        5.4891126288       -0.6389444571
 H         -4.8172990042        4.8936721820       -0.2743870947
 C         -3.6676551364        3.6017908114       -1.5467991577
 H         -4.3435435509        3.9348201547       -2.3366117088
 H         -4.0094948664        2.6183306031       -1.2193374211
 C         -2.2470833352        3.4904855188       -2.1207399428
 H         -1.6323652621        4.2971672652       -1.7225886035
 H         -2.2803589646        3.6314097828       -3.2031957990
 C         -1.5567958340        2.1434629274       -1.8745493294
 H         -0.4702953478        2.2634477958       -1.9564717397
 H         -1.8468036362        1.4366755790       -2.6590948365
 H         -3.3246795564        4.8894779442        1.6802122876
 H         -4.0011731513        3.3025107910        1.3262270579
 H         -1.2285354153        3.9770990346        0.2934213832
 H         -1.4851580499        3.5113621882        1.9798730174
 O         -2.1600556391        1.2566302864        1.7593875772
 C         -2.2213461923       -0.1234962425        1.7321566611
 O         -2.3772373208       -0.6581518803        2.8509414060
 O         -1.8201618443       -0.6106208303       -1.8266276479
 C         -2.0890168063       -2.2828529554        0.4853835545
 C         -0.7803389563       -2.7385523215       -0.1171235386
 C         -0.6719187357       -3.8011828784       -1.0046265310
 C          0.5554256040       -4.1284725322       -1.5556026909
 C          1.6892491601       -3.3986683082       -1.2505341803
 C          1.5941529238       -2.3466450781       -0.3458319535
 C          0.3725488908       -2.0460910364        0.2307083661
 H          0.3129889769       -1.2270634990        0.9338474419
 N          2.7249473903       -1.5877539895        0.0078875347
 S          2.5060422020        0.0550880831        0.3396051592
 O          2.0677606055        0.1985484115        1.7068842107
 O          1.6802176098        0.6761520981       -0.6704960661
 C          4.1901038393        0.6258567791        0.1936108886
 C          5.0591446661        0.4022508372        1.2449663447
 C          6.3769078261        0.8136994446        1.1239003923
 C          6.8016588344        1.4383000980       -0.0395881934
 C          5.9177204057        1.6580030964       -1.0851940019
 C          4.5986726410        1.2471275701       -0.9712419681
 H          3.8731217534        1.4018286725       -1.7538386278
 H          6.2492863664        2.1467181240       -1.9870838971
 H          7.8275123392        1.7582356539       -0.1309964045
 H          7.0661473175        0.6469255026        1.9358280913
 H          4.6797506531       -0.0776758008        2.1319985918
 H          3.5018894894       -1.7315672651       -0.6234423961
 H          2.6384424320       -3.6364217567       -1.7060817052
 H          0.6250854295       -4.9516535908       -2.2504527469
 H         -1.5505918557       -4.3626851498       -1.2772542600
 H         -2.1163499120       -2.6001641593        1.5388654847
 C         -3.3049586172       -2.8381810922       -0.2266893451
 C         -3.8816543419       -4.1610904589        0.1770821611
 C         -4.6089443104       -2.8939180077        0.5089650824
 H         -5.5149909631       -2.6598538818       -0.0293453948
 H         -4.6105593416       -2.5551285171        1.5350839583
 H         -4.2939976886       -4.7992748998       -0.5898373590
 H         -3.3989202433       -4.6919156246        0.9836948166
 H         -3.3311275459       -2.5621960783       -1.2745666780
