  62
        -98.94167853
 C         -2.7971663701       -0.5551393796       -0.1946465998
 C         -2.2214874001        0.3512166309       -1.1184000294
 C         -2.4342176104        1.7793387107       -0.8393672588
 C         -3.1610639206        2.1486320901        0.2295045313
 C         -3.4173146209        3.5655608699        0.6516157319
 C         -2.3585284011        4.0532816496        1.6498575722
 C         -0.9182391010        3.7907306501        1.2083529323
 H         -0.2618616912        4.2207238798        1.9685485025
 H         -0.7267764508        2.7142901001        1.2020919218
 C         -0.5560704209        4.3710633007       -0.1655246174
 H          0.4232021490        4.8484439709       -0.0924796471
 H         -1.2756154611        5.1419119007       -0.4457065572
 C         -0.4600159406        3.3297782912       -1.2823289779
 H          0.0343903694        3.7955240817       -2.1395223476
 H          0.1704408095        2.5010672012       -0.9468218082
 C         -1.7977649505        2.7645038312       -1.7786390883
 H         -2.4836522806        3.5846063812       -2.0015559080
 H         -1.6052988803        2.2153869917       -2.7048755185
 H         -2.5011610913        5.1242464195        1.8064225827
 H         -2.5202985511        3.5453642792        2.6035110620
 H         -4.3982230310        3.6082683595        1.1282775418
 H         -3.4232655209        4.2051209403       -0.2288061978
 O         -3.7241183405        1.2528181696        1.0798706209
 C         -3.5333277803       -0.1056935403        0.9068112303
 O         -4.0756283903       -0.8109279207        1.7817245599
 O         -1.5589580700        0.0130794614       -2.1370731195
 C         -2.6165695898       -2.0658924496       -0.2731910905
 C         -1.2725100698       -2.4270181996        0.3133306595
 C         -1.1687205898       -3.1846901201        1.4737039092
 C          0.0668217002       -3.4331724901        2.0473177292
 C          1.2218528502       -2.9177072397        1.4859882396
 C          1.1252939001       -2.1623730192        0.3263174399
 C         -0.1080269398       -1.9391593691       -0.2626157702
 H         -0.1697544198       -1.3365998388       -1.1569043299
 N          2.2974125701       -1.5714922087       -0.2208148997
 S          2.7086868498       -0.1528139890        0.6131244809
 O          2.8012084797       -0.4677440296        2.0164567808
 O          1.8049152096        0.9198644410        0.2559291813
 C          4.3347148398        0.1651405715       -0.0436295687
 C          5.3727453499       -0.6458504185        0.3729924410
 C          6.6374878899       -0.4375402880       -0.1524066988
 C          6.8413087098        0.5720777324       -1.0816301883
 C          5.7893423897        1.3775841224       -1.4897739480
 C          4.5207721397        1.1729754820       -0.9689691183
 H          3.6739491696        1.7767831820       -1.2543576581
 H          5.9506532197        2.1625977328       -2.2110099477
 H          7.8267007798        0.7330771928       -1.4895274781
 H          7.4584092000       -1.0611174780        0.1628502511
 H          5.1669483599       -1.4123221988        1.1013134007
 H          2.1343943702       -1.2995673683       -1.1837818796
 H          2.1851451801       -3.0688372597        1.9442515096
 H          0.1286098502       -4.0206423905        2.9509006989
 H         -2.0688673998       -3.5563616405        1.9419465789
 H         -3.3924880998       -2.4934346400        0.3757385092
 C         -2.7921224896       -2.6320191590       -1.6679065008
 C         -3.1193064393       -4.0857782290       -1.8221763614
 C         -4.1575137394       -3.0474526890       -2.1222074411
 H         -4.4325267293       -2.8709721486       -3.1511125110
 H         -4.9742068295       -2.9253740695       -1.4253963911
 H         -2.6801469291       -4.6268773585       -2.6460229016
 H         -3.2338633293       -4.6706425394       -0.9220731017
 H         -2.1413856896       -2.1792968386       -2.4036671105
