  62
        -98.93670111
 C         -2.1386488400       -1.2456766098       -0.0147849806
 C         -3.0135260198       -0.6858033499        0.9421919397
 C         -3.8454018799        0.4482776701        0.4984523799
 C         -3.6964954601        0.9140114202       -0.7548788501
 C         -4.4207082703        2.0496417203       -1.4333582799
 C         -4.6282636901        3.3304751002       -0.6102373997
 C         -6.0837676100        3.5616069501       -0.1993726494
 H         -6.2308142100        4.6294971401       -0.0232285693
 H         -6.7285109402        3.2774797002       -1.0335715093
 C         -6.5303873498        2.8200820400        1.0594988006
 H         -7.6102493298        2.9544312500        1.1560834608
 H         -6.0662747896        3.2809090700        1.9341925806
 C         -6.2185694598        1.3225360300        1.0809520504
 H         -6.9052413097        0.8483293700        1.7852653405
 H         -6.4081468700        0.8789332901        0.1041731904
 C         -4.7869679397        0.9996341300        1.5344302001
 H         -4.3322533096        1.8827987700        1.9926087501
 H         -4.8124882395        0.2357241899        2.3178468101
 H         -4.3147398302        4.1748455302       -1.2265075597
 H         -3.9830717300        3.3172681301        0.2669484502
 H         -3.8249141104        2.2724423403       -2.3216978999
 H         -5.3847461103        1.6793378903       -1.7912823197
 O         -2.8200006903        0.3553858203       -1.6399391803
 C         -2.0328651002       -0.7347726497       -1.3076097005
 O         -1.2964617104       -1.1391922696       -2.2268276307
 H         -0.0477913898       -0.1091362899        0.8822606392
 C          0.6532503801       -0.8476905699        0.5117230590
 C          0.1903687301       -2.1163277698        0.1871061189
 C          1.1050324100       -3.0496849598       -0.2845452513
 C          2.4383993600       -2.7112872198       -0.4373044915
 C          2.8909412900       -1.4431197798       -0.1235707015
 C          1.9859502101       -0.5018936598        0.3488617487
 N          2.4321188201        0.7888990801        0.6815207988
 S          3.4109103899        1.6070310502       -0.4112732913
 O          3.1868316900        3.0099007902       -0.1348899912
 O          3.1824681897        1.1736012604       -1.7696037413
 C          5.0593438800        1.1735019402        0.1046732083
 C          5.4168405903        1.4285538801        1.4142231083
 C          6.6966545604        1.1034090201        1.8339464280
 C          7.5929436702        0.5337483202        0.9416948278
 C          7.2197448700        0.2867699603       -0.3704819322
 C          5.9405355299        0.6095618203       -0.7967407619
 H          5.6043065697        0.4323168204       -1.8061322318
 H          7.9178793698       -0.1556623397       -1.0627896323
 H          8.5883326103        0.2808694402        1.2710678376
 H          6.9904248705        1.2945008800        2.8534829180
 H          4.6911742004        1.8751553501        2.0732866584
 H          1.6979470802        1.3945357801        1.0189783590
 H          3.9259965600       -1.1720213098       -0.2515725517
 H          3.1356036999       -3.4463517597       -0.8093373417
 H          0.7718332900       -4.0419887298       -0.5404334513
 C         -1.2743271699       -2.4286501699        0.3770317592
 H         -1.4551054897       -2.5798712900        1.4522237892
 C         -1.7226440100       -3.6687051098       -0.3698914008
 C         -1.6243025499       -5.0209803299        0.2689159690
 C         -2.9634757799       -4.3749339599        0.0854400193
 H         -3.6340638501       -4.7725183998       -0.6614716906
 H         -3.4658224498       -3.9784409799        0.9557664995
 H         -1.3770198600       -5.8677348798       -0.3535011011
 H         -1.2224640497       -5.0739358999        1.2693748690
 H         -1.5548801202       -3.5900046697       -1.4384572909
 O         -3.0985021396       -1.1139261100        2.1259330596
