  62
        -98.94538240
 C         -1.0985675601       -1.4408959977       -0.6668503257
 C         -2.4075694218       -1.6403052748       -0.1569491027
 C         -3.3511999942       -0.5347314794       -0.3484021913
 C         -2.9496872682        0.5796627340       -0.9862359802
 C         -3.7924722792        1.7966674627       -1.2563805214
 C         -3.8692321880        2.7769352864       -0.0776985464
 C         -4.7215923214        2.3136193548        1.1042156072
 H         -5.7043728603        2.0054069708        0.7463601802
 H         -4.8692658261        3.1799840987        1.7521246285
 C         -4.0932416149        1.1819003952        1.9295459596
 H         -4.1794927848        1.4143745468        2.9933312904
 H         -3.0271526881        1.1110389242        1.7013430466
 C         -4.7335399239       -0.1888547583        1.7121953128
 H         -5.7683708944       -0.1714154040        2.0615924545
 H         -4.1878409869       -0.9218882201        2.3116852223
 C         -4.7178153720       -0.6647858067        0.2538526500
 H         -5.4469815144       -0.1064880700       -0.3328667211
 H         -4.9900257405       -1.7229976223        0.2354970277
 H         -4.2910670069        3.7102499263       -0.4575969202
 H         -2.8551118134        2.9819776764        0.2695453283
 H         -4.7990069285        1.4891894467       -1.5418063688
 H         -3.3330308368        2.3097586613       -2.1036312084
 O         -1.6977439560        0.7187444533       -1.4941327309
 C         -0.7377706911       -0.2724920613       -1.3392479759
 O          0.3595263627        0.0127482415       -1.8539376380
 O         -2.7700434937       -2.6952141116        0.4289494319
 C         -0.0759326473       -2.5350793429       -0.4034210961
 C          0.8013824206       -2.0765765271        0.7360398827
 C          0.4794669313       -2.4436874365        2.0397860893
 C          1.2289973303       -1.9862130166        3.1075011654
 C          2.3043700220       -1.1418114340        2.8974744921
 C          2.6285519101       -0.7619156946        1.5989353406
 C          1.8866477442       -1.2369727609        0.5263161159
 H          2.1492968040       -0.9241563905       -0.4704906871
 N          3.7078889784        0.0993614528        1.3683006653
 S          3.8263454449        1.0748859493        0.0256674687
 O          4.1414571857        0.2876643145       -1.1397649704
 O          4.8342679941        2.0476870207        0.4023305371
 C          2.2799022288        1.9400870008       -0.1885978427
 C          1.4309424688        2.1593438555        0.8762600120
 C          0.2830686635        2.9089946469        0.6725988242
 C          0.0115530827        3.4362485544       -0.5792872804
 C          0.8760164255        3.2095854009       -1.6372324089
 C          2.0190235822        2.4533810652       -1.4419409844
 H          2.7064091786        2.2359168734       -2.2435823519
 H          0.6575262027        3.6073699511       -2.6153572363
 H         -0.8811254067        4.0218283184       -0.7359957368
 H         -0.3954882448        3.0763646893        1.4951328249
 H          1.6514921945        1.7406881907        1.8451850044
 H          4.1226184743        0.5188915281        2.1865070714
 H          2.8893825997       -0.7768058732        3.7278342815
 H          0.9708558852       -2.2829508586        4.1126865299
 H         -0.3762303935       -3.0820587596        2.2066382908
 H         -0.6608464118       -3.3967397182       -0.0536462563
 C          0.7058935218       -2.9543860507       -1.6292319860
 C          1.4213899901       -4.2710788852       -1.6127997417
 C          0.2008927922       -4.0916153258       -2.4636713627
 H          0.3206971532       -4.0364061372       -3.5353015066
 H         -0.7136810339       -4.5743770335       -2.1510694921
 H          2.3834864658       -4.3390565510       -2.0972337332
 H          1.3335899686       -4.8760289481       -0.7228026581
 H          1.1787778558       -2.1325149665       -2.1511105426
