  62
        -98.93146255
 C          1.4597428127        1.6118932797       -0.6048367652
 C          1.4296608434        0.1956189136       -0.6038762091
 C          2.7260062420       -0.4930307111       -0.4268475668
 C          3.8518396880        0.2243646932       -0.2709884346
 C          5.2949118947       -0.2030395290       -0.1022569129
 C          5.6451216171       -1.6457600801        0.2540580601
 C          5.2005581828       -2.0905859454        1.6472207655
 H          5.4161752903       -3.1565043543        1.7487434024
 H          5.8012838210       -1.5585416413        2.3894378882
 C          3.7314343517       -1.8463141112        1.9845261433
 H          3.5307941176       -0.7728663791        1.9908635083
 H          3.5588851474       -2.2099581237        3.0012970499
 C          2.7233967364       -2.5348143058        1.0660974528
 H          1.7325730999       -2.4008621712        1.5081500026
 H          2.9349037329       -3.6050262919        1.0272519047
 C          2.6613669975       -1.9923794281       -0.3716958839
 H          3.4348402105       -2.4322664419       -0.9960242855
 H          1.6924833113       -2.2717581771       -0.7950051825
 H          6.7357844154       -1.7173566222        0.2188200534
 H          5.2617565753       -2.3240174044       -0.5023953637
 H          5.7148034240        0.4650970465        0.6565265211
 H          5.7934477743        0.0509356151       -1.0443634868
 O          3.8349221901        1.5899976364       -0.2927938889
 C          2.6639344254        2.3046565669       -0.4457207129
 O          2.8246800181        3.5431836596       -0.4251413467
 O          0.3938730721       -0.4988265754       -0.7468727588
 C          0.2227901452        2.4964796960       -0.7445683814
 C         -0.7217955322        2.2972460419        0.4153653220
 C         -0.7170099546        3.2440992936        1.4383907138
 C         -1.5285119898        3.0998941399        2.5477489905
 C         -2.3747431535        2.0112590984        2.6600563646
 C         -2.3850613394        1.0564274793        1.6510139250
 C         -1.5635658163        1.2020078139        0.5410810037
 H         -1.5656303031        0.4312420523       -0.2076511186
 N         -3.1996334784       -0.0788043642        1.7475641892
 S         -3.8894089231       -0.7466573282        0.3786091356
 O         -4.2479182069        0.2733673218       -0.5796950504
 O         -4.9906706938       -1.5383161584        0.8908505567
 C         -2.6630951357       -1.8481907115       -0.2872608203
 C         -2.5110178101       -1.9365382684       -1.6554447048
 C         -1.5824491428       -2.8268124286       -2.1692941819
 C         -0.8304835264       -3.6108405272       -1.3100884899
 C         -0.9988775449       -3.5121969664        0.0620652401
 C         -1.9249426769       -2.6243561901        0.5822824568
 H         -2.0746261896       -2.5136001066        1.6437673257
 H         -0.4029426605       -4.1177277505        0.7265487575
 H         -0.1018695994       -4.2976190461       -1.7124664071
 H         -1.4416423852       -2.8958932575       -3.2364252205
 H         -3.1062314914       -1.2965855306       -2.2883230156
 H         -3.8237392759       -0.1009754841        2.5401555968
 H         -3.0143054791        1.8963362053        3.5221813268
 H         -1.5075669629        3.8445823660        3.3291570825
 H         -0.0567528753        4.0966704864        1.3604160462
 H          0.6225421882        3.5157266384       -0.6334791337
 C         -0.3798032724        2.4672607145       -2.1476616402
 C         -0.9685290372        1.2697608101       -2.8299662397
 C         -1.8521455696        2.4105508142       -2.4304315333
 H         -2.2447436498        3.0518019519       -3.2063488309
 H         -2.5341362202        2.2538952446       -1.6081125695
 H         -0.7436843576        1.1358130453       -3.8791996815
 H         -1.0271242352        0.3448581704       -2.2815051227
 H          0.1931508883        3.1182198042       -2.8043345145
