  62
        -98.94686111
 C          1.2485998681        1.2092389004        0.0916624284
 C          2.0300508462        0.7147507130        1.1614999189
 C          2.6997414392       -0.5712921161        0.9257699450
 C          2.5045430138       -1.2088458776       -0.2433552483
 C          3.1719098322       -2.4943709300       -0.6363819129
 C          4.4891499405       -2.2303612986       -1.3795194390
 C          5.4111804426       -1.2381226885       -0.6710148245
 H          6.3212232098       -1.1552868778       -1.2691677295
 H          4.9396166571       -0.2527840386       -0.6660980725
 C          5.7798077026       -1.6290656249        0.7669716335
 H          5.5848291911       -2.6904478140        0.9248592863
 H          6.8512667354       -1.4725882162        0.9090189111
 C          5.0650489917       -0.8164924444        1.8483637130
 H          5.5533551489       -1.0198255155        2.8052984409
 H          5.1826700627        0.2505239291        1.6424246580
 C          3.5699995530       -1.1109797097        2.0258058131
 H          3.4189176383       -2.1854713521        2.1483129970
 H          3.2405266776       -0.6118781321        2.9420997577
 H          4.2549707639       -1.8316306071       -2.3690922530
 H          5.0084291861       -3.1814959500       -1.5102714521
 H          3.3602661282       -3.0888013833        0.2554772813
 H          2.5004179188       -3.0453952996       -1.2958481154
 O          1.7091666624       -0.7241840037       -1.2289978943
 C          1.0623545568        0.4945650182       -1.0928109208
 O          0.3675826209        0.8212736095       -2.0707029134
 H         -0.8839730673        0.7599525900        1.6055265408
 C         -1.5199180936        1.3171117730        0.9280721144
 C         -0.9560291375        2.3139063432        0.1399358134
 C         -1.7838053326        3.0235502448       -0.7186049408
 C         -3.1338708279        2.7242561088       -0.7984471300
 C         -3.6879025985        1.7231108135       -0.0223751017
 C         -2.8698308270        1.0178181385        0.8511890305
 N         -3.4224108062       -0.0112550416        1.6467803479
 S         -4.0198547948       -1.3357810468        0.8115041379
 O         -5.1906517105       -0.9319063051        0.0763308466
 O         -4.2139810691       -2.3631934922        1.8097189606
 C         -2.7194596658       -1.8086661361       -0.3124076060
 C         -2.6725811923       -1.2450718186       -1.5713656324
 C         -1.6332367062       -1.5893905083       -2.4199388333
 C         -0.6642119253       -2.4849002518       -1.9964967890
 C         -0.7203623939       -3.0357209155       -0.7255736822
 C         -1.7544419513       -2.6915480581        0.1291478217
 H         -1.8387531593       -3.1042231653        1.1221192677
 H          0.0390639765       -3.7270576820       -0.3956641653
 H          0.1443669959       -2.7439543767       -2.6615735560
 H         -1.5723961824       -1.1474355700       -3.4008020006
 H         -3.4460731714       -0.5553605717       -1.8672486554
 H         -2.7853700793       -0.3367864465        2.3608995237
 H         -4.7323210541        1.4643763341       -0.0877241452
 H         -3.7633553449        3.2779318297       -1.4784459773
 H         -1.3716168954        3.8040899598       -1.3363873410
 C          0.5311775131        2.5378845928        0.2528022245
 H          0.7526493093        2.8702577407        1.2778379655
 C          1.0737846950        3.5621251892       -0.7203997335
 C          1.0020585450        5.0230633798       -0.3940472277
 C          2.3205021486        4.3117362332       -0.3617175294
 H          3.0398898937        4.5193915234       -1.1396086942
 H          2.7668992548        4.1023744418        0.5996549857
 H          0.8183869606        5.7228982791       -1.1951692561
 H          0.5547548813        5.3037189497        0.5474786266
 H          0.9529200400        3.2600783826       -1.7544266154
 O          2.1551665861        1.3160010236        2.2638648256
