  62
        -98.94821196
 C         -1.2938072702       -1.1819656320       -0.0298748310
 C         -2.0403661837       -0.5929011450        1.0182495557
 C         -2.6070756406        0.7330189280        0.7398021799
 C         -2.3669609573        1.3145319144       -0.4495201869
 C         -2.9116442381        2.6448086691       -0.8803690238
 C         -4.2563316461        2.4885262683       -1.6045198223
 C         -5.2613823663        1.6112984012       -0.8583122577
 H         -4.8848649782        0.5864450375       -0.8252556106
 H         -6.1814595239        1.5976940974       -1.4464143548
 C         -5.5747564054        2.0799029186        0.5694261244
 H         -6.6546822466        2.0343638491        0.7247875540
 H         -5.2731054378        3.1206339392        0.6931828275
 C         -4.9314940830        1.2338265851        1.6698767402
 H         -5.1543224933        0.1776359664        1.4982441453
 H         -5.3861411054        1.5130226215        2.6241766847
 C         -3.4129496695        1.3854786125        1.8270361431
 H         -3.1207575818        0.8864158270        2.7560972656
 H         -3.1530191647        2.4428256726        1.9157626562
 H         -4.0719520549        2.0407101823       -2.5835372347
 H         -4.6817363513        3.4816947476       -1.7589738089
 H         -2.1931898740        3.1066093636       -1.5598127984
 H         -3.0276173614        3.2823253038       -0.0058338291
 O         -1.6283440718        0.7281120738       -1.4247070326
 C         -1.0734443390       -0.5331575876       -1.2438787669
 O         -0.4207673584       -0.9475066456       -2.2194735585
 O         -2.2239048791       -1.1523594268        2.1338451773
 C         -0.6557186544       -2.5410764517        0.1947070245
 C          0.8468471234       -2.4121627532        0.1257193823
 C          1.6523100362       -3.2225183390       -0.6634225720
 C          3.0242924983       -3.0395553154       -0.6823898975
 C          3.6178040592       -2.0475791246        0.0756767894
 C          2.8222672329       -1.2370914764        0.8783861913
 C          1.4506598367       -1.4314226326        0.9050182357
 H          0.8418287727       -0.7980823574        1.5349273317
 N          3.3977130780       -0.2293053343        1.6772595593
 S          2.8260352115        1.3383649386        1.5601764484
 O          3.7940451684        2.1326360284        2.2848854849
 O          1.4642003938        1.4091092239        2.0238093942
 C          2.9140489065        1.7157376826       -0.1781948586
 C          1.8527059454        1.3582568235       -0.9830630301
 C          1.9427975777        1.5647752765       -2.3497449555
 C          3.0895687177        2.1312873350       -2.8844848857
 C          4.1462358624        2.4940343836       -2.0618552886
 C          4.0648937059        2.2778744263       -0.6957429006
 H          4.8611151849        2.5450291438       -0.0198325493
 H          5.0339070132        2.9382957932       -2.4825631646
 H          3.1575109900        2.2903659001       -3.9491213517
 H          1.1179554425        1.2620888398       -2.9758490773
 H          0.9739039072        0.9224530535       -0.5351118508
 H          4.4081935515       -0.2223604223        1.6552829975
 H          4.6870079387       -1.9010703582        0.0535703151
 H          3.6384049119       -3.6734233012       -1.3035211029
 H          1.2061928176       -3.9947571197       -1.2676948437
 H         -0.9234563737       -2.8201203675        1.2250400288
 C         -1.2291938347       -3.5712958242       -0.7547183570
 C         -1.2492453097       -5.0198479271       -0.3707159194
 C         -2.5254712600       -4.2355121057       -0.4032795671
 H         -3.2347964637       -4.4328380986       -1.1930019917
 H         -2.9842286441       -3.9623645036        0.5361181546
 H         -1.0851621961       -5.7599130654       -1.1392359413
 H         -0.8438935593       -5.2866556284        0.5935859179
 H         -1.0650568653       -3.3173256182       -1.7956183230
