  62
        -98.94096293
 C         -2.3588487303       -0.6139693472       -0.1017881356
 C         -3.6121032306       -0.9645780514        0.4565106334
 C         -4.5593029835        0.1389435012        0.6462426630
 C         -4.1915896056        1.3946213342        0.3323457611
 C         -5.0359079993        2.6295047649        0.4953616421
 C         -6.0065552969        2.8813795906       -0.6668945615
 C         -7.2060762965        1.9349456918       -0.7311877815
 H         -7.7050593716        1.9164672753        0.2381757049
 H         -7.9091410678        2.3581926367       -1.4513542688
 C         -6.8606322116        0.5027688929       -1.1623778383
 H         -5.8742658512        0.4916775718       -1.6317548522
 H         -7.5771041204        0.1661363880       -1.9150016308
 C         -6.8795507393       -0.5222817043       -0.0285182389
 H         -7.8947898974       -0.6178152658        0.3627167130
 H         -6.5835129888       -1.4915539659       -0.4376244143
 C         -5.9368936076       -0.1918638238        1.1360631396
 H         -6.3399412715        0.6317675010        1.7249293456
 H         -5.8585719707       -1.0744890279        1.7756186154
 H         -5.4489935188        2.8278426109       -1.6047930731
 H         -6.3816405485        3.9019820351       -0.5612858085
 H         -5.5934821795        2.5712156187        1.4306373032
 H         -4.3439538309        3.4724000442        0.5554182364
 O         -2.9632389315        1.6956638695       -0.1675008428
 C         -2.0241114640        0.7036304231       -0.4131766778
 O         -0.9560786885        1.1210576091       -0.9013312610
 H          1.2677695380       -1.1183746906       -1.0556500961
 C          1.1218965086       -1.1523518751        0.0125216064
 C         -0.1283189653       -1.4475564546        0.5286872480
 C         -0.2900011142       -1.4674884708        1.9122226384
 C          0.7730376932       -1.1964357444        2.7506837303
 C          2.0224615995       -0.9021071050        2.2311845478
 C          2.1938214411       -0.8757260231        0.8547248271
 N          3.4625656192       -0.6097026288        0.3034094465
 S          4.4062333640        0.6168477910        0.9776181428
 O          4.9217820379        0.1563320377        2.2428714446
 O          3.6761433374        1.8651604472        1.0101158916
 C          5.7278272691        0.6923082782       -0.2151706317
 C          6.7538062273       -0.2291293407       -0.1237946334
 C          7.7704554809       -0.1946101362       -1.0646582552
 C          7.7442107628        0.7547567672       -2.0755725657
 C          6.7085570931        1.6737352110       -2.1534169666
 C          5.6873691326        1.6436556143       -1.2164445217
 H          4.8662487633        2.3428067325       -1.2341750191
 H          6.6918364422        2.4122286787       -2.9387996976
 H          8.5369744853        0.7808365125       -2.8064434116
 H          8.5783687890       -0.9060007398       -1.0068152116
 H          6.7361660693       -0.9418078887        0.6838929995
 H          3.4095077717       -0.4861194873       -0.6992681128
 H          2.8567991960       -0.6795919951        2.8758353813
 H          0.6320279728       -1.2117382406        3.8212981245
 H         -1.2670360421       -1.6901831858        2.3193709585
 C         -1.3347917089       -1.7106021508       -0.3378728679
 H         -1.8126909145       -2.6347346156        0.0174792376
 C         -1.0250747676       -1.8575836846       -1.8119761119
 C         -0.4386662367       -3.1373790241       -2.3262844388
 C         -1.8605177716       -2.7845693028       -2.6411489672
 H         -2.1092480862       -2.4901525869       -3.6497621474
 H         -2.6475510828       -3.3279086642       -2.1391359505
 H          0.2891516627       -3.0895414781       -3.1219635230
 H         -0.2579565429       -3.9242034241       -1.6098676937
 H         -0.7111391837       -0.9272503642       -2.2715684471
 O         -3.9213713764       -2.1414636484        0.7833661920
