  62
        -98.93707583
 C         -1.1645507022       -1.4202130833        0.7906242794
 C         -2.0898248588       -1.2330800098       -0.2653785612
 C         -3.1490733991       -0.2445156980       -0.0159978738
 C         -3.1842084545        0.4084988022        1.1592241071
 C         -4.1820609236        1.4690782279        1.5225814857
 C         -3.6614008225        2.8700448115        1.1740785524
 C         -3.1087189071        2.9952858299       -0.2462124393
 H         -2.8200653439        4.0398037355       -0.3876310965
 H         -2.1895607161        2.4087699564       -0.3272306930
 C         -4.0903445052        2.5833828722       -1.3523501242
 H         -5.1100506321        2.5962201623       -0.9646332391
 H         -4.0380754176        3.3237375602       -2.1535823912
 C         -3.8053387155        1.2212123925       -1.9880491643
 H         -2.7507796468        1.1667879811       -2.2721425720
 H         -4.3972258810        1.1436624991       -2.9041991562
 C         -4.1350330220       -0.0018408282       -1.1229256150
 H         -4.0882866601       -0.8863620965       -1.7648827505
 H         -5.1497173624        0.0865617640       -0.7295689348
 H         -2.8583376485        3.1264807550        1.8692315114
 H         -4.4753360033        3.5844763467        1.3142955303
 H         -5.1156307769        1.2764640056        0.9973783988
 H         -4.3627342869        1.4171968914        2.5979307022
 O         -2.2797239322        0.1990832967        2.1498790925
 C         -1.2291786147       -0.6870339313        1.9732872789
 O         -0.4294049024       -0.7357827652        2.9323212527
 O         -2.0317468561       -1.8481449214       -1.3598853009
 C          0.0011468281       -2.3853226889        0.6124167414
 C          0.7643493362       -1.9900793608       -0.6339901978
 C          1.3344899034       -2.8221747607       -1.5892454256
 C          2.0319686429       -2.2904411870       -2.6631992743
 C          2.2027963293       -0.9278225027       -2.8118182577
 C          1.6483650520       -0.0816062093       -1.8581890670
 C          0.9530612622       -0.6194242360       -0.7911453176
 H          0.5112400586        0.0557417428       -0.0763816797
 N          1.7706926536        1.3115306334       -1.9551767293
 S          1.7955638814        2.2614678322       -0.5823912867
 O          0.4864895721        2.3250709834        0.0170177144
 O          2.3408848604        3.5222583187       -1.0398688139
 C          2.9691760685        1.4686168458        0.5027354496
 C          2.5618481725        0.8393681822        1.6607495821
 C          3.5112868875        0.2017132164        2.4450395614
 C          4.8432067564        0.2055510510        2.0630652755
 C          5.2389692287        0.8508549815        0.9007554943
 C          4.2949705218        1.4859148503        0.1118281486
 H          4.5641275298        2.0093028704       -0.7911879904
 H          6.2764692343        0.8580673123        0.6081833261
 H          5.5754168556       -0.2948297154        2.6768406520
 H          3.1927866542       -0.2975125322        3.3464860998
 H          1.5196337068        0.8425702773        1.9419144128
 H          2.3951026879        1.6468402716       -2.6726494952
 H          2.7426246746       -0.5223513885       -3.6533682342
 H          2.4536460989       -2.9592033475       -3.3983101412
 H          1.2381621943       -3.8906477382       -1.5300313191
 H          0.6771905003       -2.1871270712        1.4626993209
 C         -0.5338512615       -3.7969915588        0.8110112187
 C         -0.9756560499       -4.7207828035       -0.2789167956
 C          0.2205963546       -5.0687116380        0.5577087344
 H          0.1106661071       -5.8609407007        1.2839665791
 H          1.2075916840       -5.0171327565        0.1293668299
 H         -1.8883411621       -5.2780037059       -0.1247432335
 H         -0.8464925895       -4.3925518262       -1.2969747336
 H         -1.1519750358       -3.8058625360        1.7072459075
