  62
        -98.93217808
 C          1.8455723700        0.7423327199        0.3658977601
 C          2.2340979701       -0.5105407200       -0.1731374403
 C          3.6278178501       -0.6410488998       -0.6271571702
 C          4.4516505901        0.4151571601       -0.5225172598
 C          5.8920344401        0.5340189403       -0.9546519496
 C          6.8188162601       -0.6547882198       -0.6684316499
 C          6.5079584400       -1.4215182103        0.6252825598
 H          7.4240510099       -1.5148205804        1.2115772598
 H          5.7910295899       -0.8618252504        1.2284868399
 C          5.9683127300       -2.8306384302        0.3688363693
 H          6.5537516901       -3.2893644899       -0.4309996208
 H          6.1168265499       -3.4325098005        1.2686870691
 C          4.4846162400       -2.9094555800        0.0112809791
 H          4.2576874401       -3.9444640200       -0.2552310012
 H          3.8787422100       -2.6643519003        0.8877180192
 C          4.0302451101       -1.9947925297       -1.1379329706
 H          4.7926659502       -1.9232368594       -1.9098246805
 H          3.1286493102       -2.4300008895       -1.5772474908
 H          6.7921265402       -1.3484611795       -1.5075709202
 H          7.8344348901       -0.2579451098       -0.6217509897
 H          5.9075436802        0.7499501406       -2.0270447696
 H          6.2687446601        1.4231931301       -0.4431800093
 O          4.0380867801        1.6044008300       -0.0041774494
 C          2.7398750700        1.8093207698        0.4497116105
 O          2.5436672100        2.9579095497        0.8849015809
 O          1.4414673001       -1.4851798899       -0.2726554406
 C          0.4075902800        0.8565059397        0.8351997900
 C         -0.5027212599        1.3734350501       -0.2490889599
 C         -0.1523768099        2.4541020503       -1.0513823695
 C         -1.0248334698        2.9165786706       -2.0200007194
 C         -2.2673146998        2.3309636807       -2.1895589897
 C         -2.6278550298        1.2520105204       -1.3916741601
 C         -1.7360502799        0.7698211301       -0.4441082902
 H         -2.0106216300       -0.0854085401        0.1533159095
 N         -3.8771830698        0.6318919305       -1.5279461004
 S         -4.7082164699        0.1607133500       -0.1498485506
 O         -6.0963988399        0.1270694302       -0.5562207807
 O         -4.3899753200        1.0125774697        0.9712906997
 C         -4.1532382900       -1.5021894801        0.1552052689
 C         -4.2806750199       -2.4302459197       -0.8592305914
 C         -3.8595565699       -3.7304529898       -0.6327746118
 C         -3.3230617300       -4.0791579602        0.5975941781
 C         -3.2064753101       -3.1368769605        1.6075789684
 C         -3.6258623201       -1.8344617705        1.3872065288
 H         -3.5466633801       -1.0696316707        2.1442929891
 H         -2.7876121802       -3.4088949109        2.5632504784
 H         -2.9923377200       -5.0910081703        0.7712733978
 H         -3.9476583799       -4.4671513395       -1.4149505221
 H         -4.7049776498       -2.1217694194       -1.8000764814
 H         -4.4889513998        1.0513140007       -2.2128215103
 H         -2.9526968097        2.7057194710       -2.9346405296
 H         -0.7404574397        3.7540871008       -2.6394160491
 H          0.8035541501        2.9334188503       -0.9022854892
 H          0.1000199400       -0.1807687104        1.0455275197
 C          0.2515027199        1.6394333093        2.1315573203
 C         -0.2845467001        3.0341968993        2.1972950007
 C         -1.1090086702        1.8944438191        2.7118722803
 H         -1.2383664603        1.7939452887        3.7793032802
 H         -1.9763157001        1.6045435793        2.1355282201
 H          0.1711120198        3.7139107490        2.9009906310
 H         -0.5869474700        3.5068468696        1.2761300108
 H          1.0400458598        1.4002314090        2.8389016203
