  62
        -98.93835286
 C          1.8299154497        0.7387068242        0.1628543719
 C          2.3501303216       -0.5733439917        0.0831685378
 C          3.7795949780       -0.7274210697        0.4126462619
 C          4.4895751704        0.3560300625        0.7724268855
 C          5.9577913458        0.4238643956        1.0900083966
 C          6.7660885180        0.8030091552       -0.1624354134
 C          7.1790835893       -0.3751905127       -1.0437079778
 H          7.6219511182        0.0385064696       -1.9526666413
 H          7.9552910854       -0.9497400032       -0.5338535053
 C          6.0469096391       -1.3272117624       -1.4386431035
 H          5.1609826639       -0.7525326049       -1.7151038669
 H          6.3657236001       -1.8754523176       -2.3274288574
 C          5.6923748667       -2.3350668431       -0.3350543240
 H          5.6893957212       -3.3433336876       -0.7544646978
 H          6.4733670947       -2.3194098843        0.4250561017
 C          4.3221336578       -2.1279201240        0.3283328861
 H          4.3455485034       -2.5545131737        1.3367713823
 H          3.5604947846       -2.6849969331       -0.2266369310
 H          6.1680520773        1.5075545553       -0.7460815989
 H          7.6727666870        1.3250327285        0.1499245202
 H          6.0795158114        1.2135631163        1.8342949731
 H          6.3046300130       -0.5139048371        1.5135149580
 O          3.9436034085        1.6012931630        0.8461164341
 C          2.6141421126        1.8270648866        0.5428055740
 O          2.2517947178        3.0157149081        0.6536688108
 O          1.6596348242       -1.5717311307       -0.2518207405
 C          0.3740588981        1.0000816022       -0.1799670023
 C         -0.5253006280        0.1448799976        0.6781550330
 C         -0.3009008567        0.1078851346        2.0527915719
 C         -1.0831321640       -0.6758960674        2.8769938449
 C         -2.1190341643       -1.4286367683        2.3513089831
 C         -2.3610981747       -1.3885634556        0.9845872389
 C         -1.5728666862       -0.5978170531        0.1572981157
 H         -1.7768330505       -0.5994532799       -0.9000411096
 N         -3.4030101863       -2.1431202318        0.4240483822
 S         -4.3606554518       -1.4738684871       -0.7684307762
 O         -5.5916246280       -2.2327219259       -0.7121093624
 O         -3.6752491497       -1.4814170705       -2.0353859776
 C         -4.6506099926        0.2033160776       -0.2326468564
 C         -5.2737728090        0.4020549506        0.9840030003
 C         -5.4810881367        1.6977128182        1.4272461235
 C         -5.0640429387        2.7682676059        0.6506695208
 C         -4.4464647474        2.5521740293       -0.5710015260
 C         -4.2354023577        1.2575399067       -1.0186028393
 H         -3.7561789774        1.0458046465       -1.9602630919
 H         -4.1268127667        3.3857972318       -1.1760742198
 H         -5.2227623831        3.7768890231        0.9983384011
 H         -5.9644649019        1.8698191125        2.3753719126
 H         -5.5961250607       -0.4509902412        1.5585126294
 H         -3.9494560173       -2.6687488921        1.0901325714
 H         -2.7259486043       -2.0505205272        2.9915367051
 H         -0.8877568175       -0.7014363734        3.9384433350
 H          0.5099708298        0.6943878568        2.4634563379
 H          0.1881450108        2.0543770400        0.0729072588
 C          0.1565767676        0.8111492560       -1.6668234943
 C         -0.8688009963        1.6266018106       -2.3926076968
 C          0.5898647659        1.8973950560       -2.6034876629
 H          1.0385923102        1.6186970681       -3.5452327562
 H          1.0141964294        2.7885527368       -2.1637447328
 H         -1.4246899024        1.1583179145       -3.1916053018
 H         -1.4338098920        2.3420734753       -1.8148057370
 H          0.3150186508       -0.2131565289       -1.9855889553
