  62
        -98.93931270
 C         -2.5746209915       -0.2056321885        0.2318121432
 C         -2.6120098179        0.9704411050        1.0218985732
 C         -2.3191608964        2.2322411313        0.3320679679
 C         -2.0090038313        2.2072444256       -0.9764445136
 C         -1.6661003953        3.4140076015       -1.8006460301
 C         -0.1532671834        3.6668908249       -1.8297850054
 C          0.5050108075        3.6664665440       -0.4499905049
 H          0.4796503602        2.6492641444       -0.0511525037
 H          1.5573941263        3.9199336148       -0.5997711830
 C         -0.1161036892        4.6433027538        0.5582504226
 H          0.6908148984        5.1544445187        1.0877009381
 H         -0.6897985218        5.4051175879        0.0289414674
 C         -1.0004688407        3.9907597850        1.6226600034
 H         -1.1775361762        4.7244315711        2.4138116082
 H         -0.4688186551        3.1467149515        2.0697956404
 C         -2.3713123703        3.4956168175        1.1444848088
 H         -2.9674961068        3.2578836361        2.0304399554
 H         -2.8778932209        4.2894114364        0.5916544581
 H          0.3183324496        2.8803256000       -2.4243378209
 H          0.0250411278        4.6247610765       -2.3232487713
 H         -2.0140861311        3.2402880486       -2.8206946625
 H         -2.1824036495        4.2817023276       -1.3935248561
 O         -1.9509167009        1.0602418078       -1.6973757268
 C         -2.1818328094       -0.1750687920       -1.1089074146
 O         -2.0259892174       -1.1365226065       -1.8848727869
 O         -2.8751258063        0.9630727001        2.2559915418
 C         -2.7887918213       -1.5350552484        0.9408658354
 C         -1.5851840281       -2.3984781765        0.6631584404
 C         -1.6209423803       -3.6290488859        0.0229350820
 C         -0.4445917054       -4.2859797722       -0.2991208937
 C          0.7865957898       -3.7272185324       -0.0053099707
 C          0.8277357968       -2.5109833670        0.6589293299
 C         -0.3467124450       -1.8701383349        1.0062002895
 H         -0.3033315900       -0.9057689864        1.4994950260
 N          2.0872421415       -1.8772700831        0.8954311361
 S          2.3608745352       -0.7651102562       -0.3599854704
 O          1.4587585600        0.3603587500       -0.2371976829
 O          2.3345531521       -1.4907766036       -1.6040102375
 C          4.0293525161       -0.2431714031       -0.0044299812
 C          5.0473606479       -1.1623367568       -0.1715376848
 C          6.3463995208       -0.7836240688        0.1258988538
 C          6.6041636902        0.5005021431        0.5833107610
 C          5.5720019736        1.4116899139        0.7453337908
 C          4.2695335504        1.0380720797        0.4513573421
 H          3.4347689262        1.7126875380        0.5587202022
 H          5.7744480091        2.4097830317        1.0992262537
 H          7.6161982502        0.7936671269        0.8137245216
 H          7.1521145821       -1.4887690945        0.0006962087
 H          4.7978778483       -2.1449810213       -0.5354291452
 H          2.0556355008       -1.3353213542        1.7517353973
 H          1.7076218604       -4.2038084485       -0.2979744052
 H         -0.4891458726       -5.2339941526       -0.8134709806
 H         -2.5694243421       -4.0547445293       -0.2620870976
 H         -2.7800829440       -1.2703858707        2.0120587519
 C         -4.1209042639       -2.2162904989        0.6792075084
 C         -5.3346616232       -1.4131297336        0.3205594831
 C         -4.7236330288       -2.3379601775       -0.6868837685
 H         -5.2525634523       -3.2483346995       -0.9291257406
 H         -4.1779538546       -1.9158935958       -1.5153020117
 H         -6.2810709476       -1.6833909012        0.7641457464
 H         -5.2025903018       -0.3497426128        0.1807376290
 H         -4.2814275063       -3.0518895643        1.3539424328
