  62
        -98.94179334
 C          0.8109675779        1.8291953325        0.5342996823
 C          1.7557254536        1.5322295923       -0.4783495232
 C          2.8377771633        0.6155585074       -0.0952115802
 C          2.8983227773        0.1412983684        1.1615785511
 C          3.9205571616       -0.8193947881        1.7054573245
 C          3.8580223646       -2.2404258276        1.1098378976
 C          4.8386464743       -2.4786035816       -0.0454124471
 H          5.6639954731       -1.7703604807        0.0416948618
 H          5.2687084893       -3.4768771535        0.0594005970
 C          4.2412832392       -2.3951309350       -1.4535082610
 H          3.7005691360       -3.3205644787       -1.6658328748
 H          5.0679917542       -2.3235969551       -2.1644587926
 C          3.2695121419       -1.2405028450       -1.7017296238
 H          2.3059914834       -1.4697717976       -1.2380915417
 H          3.0823416924       -1.1781011799       -2.7762463346
 C          3.7488249205        0.1309097543       -1.1843097051
 H          4.7780797956        0.0731787654       -0.8330646504
 H          3.6965801167        0.8681434232       -1.9882973769
 H          4.1004399303       -2.9371590290        1.9142305274
 H          2.8361122243       -2.4553307283        0.7928393423
 H          4.9188376423       -0.4023782890        1.5560152802
 H          3.7355316645       -0.8720899844        2.7802880455
 O          2.0096494220        0.5073980843        2.1247734298
 C          0.9216136050        1.3133102049        1.8234752541
 O          0.1377076211        1.4954084651        2.7783497692
 O          1.6901804284        1.9924831073       -1.6479680346
 C         -0.4427699355        2.6090525373        0.1896414115
 C         -1.2317504238        1.8732611951       -0.8713401375
 C         -2.0671246580        2.5191812462       -1.7752916650
 C         -2.7689766887        1.7912985741       -2.7209349479
 C         -2.6617015881        0.4134005619       -2.7875624816
 C         -1.8300511309       -0.2418643573       -1.8866893244
 C         -1.1407884448        0.4906156842       -0.9348706663
 H         -0.4839317784       -0.0300996397       -0.2575662923
 N         -1.6583530810       -1.6310345169       -1.9282739501
 S         -1.2358343247       -2.5022843234       -0.5717190521
 O          0.1315642924       -2.2433878989       -0.1952522509
 O         -1.5394833408       -3.8715088832       -0.9301924351
 C         -2.3629607105       -1.9552506337        0.6970283468
 C         -3.7059468397       -2.2271002565        0.5171401995
 C         -4.6144315008       -1.7820001464        1.4625593233
 C         -4.1687861570       -1.0678804919        2.5652598663
 C         -2.8182470327       -0.8084740410        2.7356251059
 C         -1.9047816890       -1.2587706229        1.7953663014
 H         -0.8489066137       -1.0651903119        1.9063513666
 H         -2.4588159193       -0.2469739640        3.5835139420
 H         -4.8760383360       -0.7126316467        3.2979774601
 H         -5.6651465164       -1.9875446034        1.3363665767
 H         -4.0131545311       -2.7917441389       -0.3479953280
 H         -2.2724120123       -2.1361374063       -2.5479615480
 H         -3.2005962870       -0.1482499422       -3.5347490227
 H         -3.4093644821        2.3060520218       -3.4209253968
 H         -2.1594708687        3.5927230099       -1.7448795052
 H         -1.0499215531        2.6335477171        1.1075124663
 C         -0.1066185212        4.0320310408       -0.2097854508
 C         -1.0258007097        5.1607355219        0.1462388462
 C          0.2827755767        5.0070547590        0.8594001347
 H          1.0741337957        5.7115050394        0.6521545503
 H          0.2724136961        4.6504924682        1.8794356399
 H         -1.1326511143        5.9772862637       -0.5519699115
 H         -1.9263177362        4.9226468448        0.6921598781
 H          0.4283674874        4.0817308876       -1.1508888575
