  62
        -98.93688175
 C          2.4309868023        1.2132777632       -0.1585704601
 C          2.2918555512       -0.0441294336        0.4794758205
 C          3.5497173298       -0.7106342658        0.8501801646
 C          4.7271928542       -0.0984864417        0.6352140412
 C          6.0878583682       -0.6484331530        0.9664488232
 C          6.6553365746       -1.5891855527       -0.1054921760
 C          5.9927063649       -2.9653849771       -0.1815374174
 H          6.6248290207       -3.5904151955       -0.8153101127
 H          5.9790586805       -3.4164672126        0.8110692514
 C          4.5716359258       -2.9547807262       -0.7624958160
 H          4.4005850117       -2.0155982223       -1.2940532357
 H          4.4707187857       -3.7580994297       -1.4958057031
 C          3.4626440900       -3.1455550277        0.2725163397
 H          3.5437665986       -4.1395730450        0.7180904243
 H          2.4986943416       -3.0863184076       -0.2406769559
 C          3.4645119008       -2.1030541599        1.3983640954
 H          2.5215756664       -2.1867172916        1.9446843425
 H          4.2876136639       -2.2935843518        2.0866671016
 H          7.7154739605       -1.7325302066        0.1154195593
 H          6.5821386891       -1.0958159325       -1.0774580918
 H          6.0507155655       -1.1667040391        1.9248862217
 H          6.7557727596        0.2104701871        1.0597800215
 O          4.8133091614        1.1447299460        0.0909015319
 C          3.6787430278        1.8185833664       -0.3314941825
 O          3.9072973765        2.9410006766       -0.8246288334
 O          1.1896579789       -0.5939116982        0.7363408746
 C          1.2278010185        1.9948556317       -0.6567781427
 C          0.1108360285        1.9427949591        0.3565745295
 C          0.3340302428        2.4808538682        1.6213999092
 C         -0.6496955187        2.4371115919        2.5895657322
 C         -1.8777689572        1.8620380982        2.3153783357
 C         -2.1167853788        1.3365053036        1.0507803045
 C         -1.1272675122        1.3852219042        0.0793466135
 H         -1.3274030772        0.9441989639       -0.8819320756
 N         -3.3787506798        0.7982408267        0.7428810207
 S         -3.5646349181       -0.4071867303       -0.4199781221
 O         -2.7734642211       -1.5731246145       -0.0995037059
 O         -3.3640876973        0.1698140312       -1.7259290923
 C         -5.2972642696       -0.7669744451       -0.1903593360
 C         -5.6719187591       -1.8949293703        0.5144501737
 C         -7.0210252535       -2.1508164460        0.7042303086
 C         -7.9677018429       -1.2775792458        0.1904486458
 C         -7.5767313553       -0.1495839352       -0.5159923474
 C         -6.2297180115        0.1110279515       -0.7101019728
 H         -5.8791846300        0.9689945434       -1.2595161473
 H         -8.3159868353        0.5254725013       -0.9160022441
 H         -9.0167983317       -1.4788916042        0.3392364223
 H         -7.3273494826       -3.0286645874        1.2501140929
 H         -4.9003241096       -2.5489891404        0.8881631484
 H         -3.9188167400        0.5820072460        1.5697291414
 H         -2.6437624233        1.8178711695        3.0747552481
 H         -0.4577653307        2.8471131898        3.5699580530
 H          1.3001534436        2.9170708218        1.8390550128
 H          1.5723891207        3.0404833995       -0.7256805439
 C          0.7780623941        1.5907924544       -2.0535158981
 C          1.7457698635        1.0466006008       -3.0601599831
 C          0.6918470921        0.1564251446       -2.4769526349
 H         -0.1396842845       -0.1447218302       -3.0983622868
 H          0.9850659786       -0.5942297221       -1.7593292275
 H          1.6451932688        1.3604026471       -4.0881847386
 H          2.7692988516        0.9028079934       -2.7453836210
 H          0.0097046112        2.2543126266       -2.4398212685
