  62
        -98.93540381
 C         -2.0115424062       -0.4082160616       -0.0631494729
 C         -3.1096070906       -1.0912665075        0.5172181137
 C         -4.3419509375       -0.3155672454        0.7417305537
 C         -4.3616601772        0.9922555837        0.4255141791
 C         -5.4435469254        2.0414254510        0.5764089191
 C         -6.8794402304        1.6405962890        0.9035602270
 C         -7.6041998893        0.8931509545       -0.2158571564
 H         -8.5713233565        0.5587168877        0.1656718239
 H         -7.7936294869        1.5934010780       -1.0334364915
 C         -6.8590860509       -0.3042957241       -0.8002860952
 H         -7.4763636796       -0.7248525606       -1.5988736174
 H         -5.9270746843        0.0327893038       -1.2587841832
 C         -6.5498995153       -1.4270993201        0.1877617778
 H         -6.1590204894       -2.2724655547       -0.3852309401
 H         -7.4714639316       -1.7522402274        0.6744308956
 C         -5.5162035228       -1.0856786210        1.2742170174
 H         -5.9773363018       -0.5584238139        2.1058443751
 H         -5.1138366544       -2.0250822000        1.6646301668
 H         -6.9091412016        1.0701002238        1.8272065715
 H         -7.4272918049        2.5687107016        1.0881546620
 H         -5.0865786708        2.7219263817        1.3574641683
 H         -5.4354032235        2.6152791610       -0.3559883212
 O         -3.2647041102        1.6196151673       -0.0885886638
 C         -2.0744563867        0.9546407623       -0.3525038579
 O         -1.1913362931        1.6888474098       -0.8316691747
 H          1.2273636363        0.2184470427       -1.5810320759
 C          1.3563875951        0.2034112637       -0.5101762124
 C          0.4419042186       -0.4706171918        0.2834011526
 C          0.6149874750       -0.4503397883        1.6642963218
 C          1.6679635771        0.2389600458        2.2355301657
 C          2.5707168525        0.9237685633        1.4414668056
 C          2.4064842980        0.9093354115        0.0627770444
 N          3.3162605232        1.6055588030       -0.7475391366
 S          4.9470635013        1.4870948152       -0.4115296019
 O          5.2922113249        2.3690863435        0.6758749409
 O          5.6133402887        1.7459300353       -1.6687957307
 C          5.1947070697       -0.2085009800        0.0872708832
 C          4.8895752630       -1.2035401953       -0.8204951307
 C          5.0447109470       -2.5268873936       -0.4421099121
 C          5.4991914173       -2.8318174734        0.8320597862
 C          5.8058081672       -1.8217575716        1.7301167474
 C          5.6509356661       -0.4959628166        1.3572322464
 H          5.8760538331        0.3199647298        2.0245382068
 H          6.1613297087       -2.0615454929        2.7192475736
 H          5.6158319099       -3.8632797293        1.1250126747
 H          4.8086286053       -3.3147279086       -1.1393161946
 H          4.5454141155       -0.9321277834       -1.8055313889
 H          3.1223837350        1.5494428438       -1.7356322872
 H          3.3855973354        1.4849171346        1.8693349738
 H          1.7859513164        0.2489385030        3.3084425491
 H         -0.0967379160       -0.9747587079        2.2869649786
 C         -0.7394131432       -1.2051673059       -0.2952316472
 H         -0.8888164291       -2.1248137773        0.2934596448
 C         -0.5224406426       -1.6478098905       -1.7345643160
 C         -1.6861659585       -2.0349984838       -2.5959154786
 C         -0.8929238347       -0.8055297854       -2.9170552067
 H         -0.2457357028       -0.8277456086       -3.7823270557
 H         -1.3368194830        0.1600471058       -2.7321951157
 H         -2.6753498945       -1.9090256493       -2.1803607464
 H         -1.5891189411       -2.8957787254       -3.2401895953
 H          0.3731611635       -2.2538276948       -1.8345654448
 O         -3.0620203149       -2.3066850544        0.8454104609
