  62
        -98.94342329
 C         -1.9511652867       -0.8568456865        0.0441153235
 C         -2.2387440209        0.1124131714        1.0325852924
 C         -2.5422569238        1.4622633021        0.5421169760
 C         -2.4888710549        1.7077572196       -0.7799371541
 C         -2.8182269212        3.0244004165       -1.4209041769
 C         -4.3036460054        3.1027934206       -1.8012099898
 C         -5.2520297992        2.7003672903       -0.6719019990
 H         -5.1129890318        1.6394396369       -0.4520190120
 H         -6.2714097213        2.8216250302       -1.0442655165
 C         -5.0795971136        3.5111648219        0.6200182151
 H         -6.0667363840        3.7953204305        0.9903250899
 H         -4.5341512911        4.4317417443        0.4097987630
 C         -4.3798039957        2.7572472063        1.7523437067
 H         -4.8661107099        1.7904669971        1.9050345217
 H         -4.5017950222        3.3343446245        2.6727985892
 C         -2.8769476879        2.5135969198        1.5627336569
 H         -2.4749344759        2.1460019650        2.5118842671
 H         -2.3760578924        3.4542956031        1.3232961284
 H         -4.4782436330        2.4365294216       -2.6490123886
 H         -4.5245509877        4.1234206607       -2.1186559884
 H         -2.5629515898        3.8289120663       -0.7338047936
 H         -2.2125610820        3.1257061615       -2.3230290931
 O         -2.1746957495        0.7593504591       -1.6986643161
 C         -1.8967285791       -0.5432186178       -1.3136967158
 O         -1.6266124979       -1.3114394155       -2.2569137719
 H          0.5332658370       -0.6905813695        0.3134635483
 C          0.7653061217       -1.7040039002        0.0182788964
 C         -0.2354786175       -2.6670384170        0.0251260063
 C          0.0920573681       -3.9651836353       -0.3467161943
 C          1.3862432736       -4.2801643011       -0.7234093143
 C          2.3759194250       -3.3157659509       -0.7387199991
 C          2.0573337728       -2.0112556255       -0.3736501308
 N          3.0302506633       -1.0007869713       -0.4341621741
 S          2.8388630011        0.4359245415        0.4172184312
 O          2.6076683843        0.1681942204        1.8203210340
 O          1.8572958469        1.2536166399       -0.2522598220
 C          4.4626857335        1.1362216879        0.1898072703
 C          4.7590525919        1.7333481308       -1.0210690609
 C          6.0278492721        2.2543224122       -1.2186080752
 C          6.9745068778        2.1693718883       -0.2081649081
 C          6.6622953625        1.5686762478        1.0020005852
 C          5.3951293984        1.0446970609        1.2056669216
 H          5.1034109453        0.5759787662        2.1316992438
 H          7.3989958630        1.5067622849        1.7865807527
 H          7.9608773893        2.5764989473       -0.3644955591
 H          6.2729204747        2.7240837153       -2.1574743007
 H          3.9875589504        1.7825588657       -1.7720613615
 H          3.9784326638       -1.3476137752       -0.4011902330
 H          3.3825165608       -3.5614447445       -1.0399006478
 H          1.6270112704       -5.2927934946       -1.0093930512
 H         -0.6674290099       -4.7298655097       -0.3429863925
 C         -1.6223470384       -2.2728079402        0.4737826052
 H         -1.6277958768       -2.2529104604        1.5752166835
 C         -2.6968843603       -3.2305111479       -0.0020574973
 C         -3.0793488571       -4.4216290389        0.8233706333
 C         -4.0113507556       -3.2535059950        0.7172494793
 H         -4.9156397750       -3.3611294041        0.1373867612
 H         -4.1158291468       -2.6018255586        1.5727910322
 H         -2.5614347874       -4.5693778534        1.7590660195
 H         -3.3476723743       -5.3355804846        0.3151737699
 H         -2.7148097350       -3.3249765045       -1.0821246429
 O         -2.2438947273       -0.1419747970        2.2695654490
