  62
        -98.93441382
 C         -2.3658488070       -0.9144689986        0.1077966243
 C         -3.6087455551       -0.8455764402        0.7857577552
 C         -4.6701933077       -0.0361593279        0.1624033143
 C         -4.4054667941        0.6289532211       -0.9771979517
 C         -5.2845585098        1.4912535471       -1.8589294498
 C         -6.6455256104        1.9772748133       -1.3681013767
 C         -6.5865996622        2.9973528336       -0.2312944562
 H         -7.6060340776        3.1876135793        0.1112496097
 H         -6.1884011119        3.9348678652       -0.6275044654
 C         -5.7253463215        2.6020328607        0.9655893791
 H         -5.7582865534        3.4232200298        1.6867704586
 H         -4.6856253111        2.4936645734        0.6499084379
 C         -6.1590350437        1.3302314826        1.6914552096
 H         -7.2069502717        1.4138944981        1.9861509084
 H         -5.5608154764        1.2508401381        2.6032370432
 C         -5.9752822710        0.0222273094        0.9032816185
 H         -6.8088846663       -0.1519411404        0.2269819381
 H         -5.9576503383       -0.8031794687        1.6210902709
 H         -7.2696776821        1.1323719694       -1.0922648814
 H         -7.1289792645        2.4618462578       -2.2207599908
 H         -5.4338731344        0.9153911510       -2.7790963449
 H         -4.6728911808        2.3562186617       -2.1346380424
 O         -3.1797560084        0.5665243767       -1.5726976969
 C         -2.1342633672       -0.1906669044       -1.0615134450
 O         -1.0931370621       -0.1213608361       -1.7392127034
 O         -3.8298226668       -1.4460924584        1.8712385729
 C         -1.2730067188       -1.7596281273        0.7381006734
 C          0.0119898998       -0.9777138776        0.8273720072
 C          0.1348989262        0.0158827182        1.7941831952
 C          1.2939530973        0.7611434547        1.8988218768
 C          2.3534624850        0.5359170339        1.0375679648
 C          2.2396607155       -0.4493402574        0.0667165454
 C          1.0786910767       -1.2055696292       -0.0272166780
 H          0.9957508767       -1.9569027223       -0.7973921255
 N          3.3038051334       -0.6658809745       -0.8248971342
 S          4.8402779799       -0.8960110511       -0.1978700483
 O          5.5553441571       -1.6485741944       -1.2057893052
 O          4.7897251267       -1.4814063464        1.1224070894
 C          5.5225844517        0.7461564709       -0.1098362795
 C          5.5388400279        1.5074845761       -1.2620235910
 C          6.0768828215        2.7834848487       -1.2129966313
 C          6.5890269187        3.2728144500       -0.0204253643
 C          6.5678214524        2.4948943554        1.1269565459
 C          6.0302340919        1.2177953561        1.0847825599
 H          5.9870830795        0.5791687394        1.9526582625
 H          6.9662719902        2.8772919656        2.0529463379
 H          7.0069347211        4.2665492995        0.0145226701
 H          6.0943960095        3.3916405054       -2.1031108641
 H          5.1326712626        1.0903934176       -2.1684910450
 H          3.0971737180       -1.3351405075       -1.5516638777
 H          3.2586999982        1.1167720361        1.1085091818
 H          1.3736939263        1.5273928909        2.6549923200
 H         -0.6954499834        0.1990321576        2.4625454560
 H         -1.6300100871       -1.9408855834        1.7652127318
 C         -1.0910436618       -3.1292198725        0.1002611746
 C         -2.2739184101       -3.8973115885       -0.4065197307
 C         -1.2508128624       -3.3767308432       -1.3687802238
 H         -0.5861044423       -4.0860862975       -1.8410194742
 H         -1.5108301098       -2.5395986949       -1.9973683186
 H         -2.3165879894       -4.9601529891       -0.2222842818
 H         -3.2360156259       -3.4073795699       -0.3708743405
 H         -0.3224635797       -3.7062817596        0.6070405543
