  62
        -98.93986640
 C         -1.7743991946       -0.5491063907        0.8601117449
 C         -2.7849063826       -1.2272525155        0.1332374950
 C         -4.1513927443       -0.7139782683        0.3127242243
 C         -4.3817170285        0.3263448926        1.1321551080
 C         -5.7207321961        0.9464590427        1.4261075801
 C         -6.1677229144        1.9849000565        0.3880969350
 C         -6.6024248737        1.4103633458       -0.9608312602
 H         -7.3459598880        0.6293492653       -0.7986508794
 H         -7.0923079891        2.2175391066       -1.5091583956
 C         -5.4521228220        0.8600657858       -1.8156402784
 H         -4.5017437660        1.2479009752       -1.4411444177
 H         -5.5596888479        1.2165942309       -2.8425560796
 C         -5.3774376076       -0.6658040198       -1.8711666511
 H         -6.2683570196       -1.0581201185       -2.3664707841
 H         -4.5077284894       -0.9440346461       -2.4713750762
 C         -5.2429997459       -1.3422044888       -0.5006432057
 H         -6.1905856963       -1.2984128701        0.0355672611
 H         -4.9775941957       -2.3900184089       -0.6604537333
 H         -5.3542657580        2.6983111746        0.2358873037
 H         -7.0119766844        2.5306641035        0.8158802201
 H         -6.4767186777        0.1651772483        1.5100423266
 H         -5.6264046867        1.4447389025        2.3934497841
 O         -3.3863223409        0.9417143093        1.8256142278
 C         -2.0697049817        0.5347484737        1.6918138994
 O         -1.2607481061        1.2007636791        2.3704142330
 H          1.7702750257        0.8172218519        0.8157289043
 C          1.4107576437        0.6251764805       -0.1841548130
 C          0.3447943563       -0.2392778272       -0.3858713416
 C         -0.1279634198       -0.4334123909       -1.6815500816
 C          0.4550110686        0.2281258760       -2.7454279197
 C          1.5229274929        1.0854040038       -2.5427283765
 C          1.9989437004        1.2899806765       -1.2532457273
 N          3.0696152974        2.1630896682       -1.0224541259
 S          4.1626271600        1.8771396102        0.2018449527
 O          3.6074654515        2.2487145566        1.4787897833
 O          5.3479853704        2.6028331673       -0.2035682129
 C          4.4919259772        0.1230951743        0.1675704619
 C          4.7729751545       -0.4834349555       -1.0410544808
 C          5.0479124457       -1.8411346346       -1.0620673605
 C          5.0475440393       -2.5655422320        0.1199161236
 C          4.7720875464       -1.9410764826        1.3263799745
 C          4.4878879322       -0.5843374350        1.3522035467
 H          4.2537219941       -0.0623335036        2.2666922433
 H          4.7708173648       -2.5046623779        2.2457328146
 H          5.2589701739       -3.6226992449        0.1017983720
 H          5.2604694730       -2.3298059993       -1.9990956842
 H          4.7764407434        0.1041433822       -1.9443679904
 H          3.5046414961        2.5461012196       -1.8482037693
 H          1.9766197136        1.6039183246       -3.3735266145
 H          0.0781668647        0.0721294496       -3.7448947787
 H         -0.9575161637       -1.1056320174       -1.8379891566
 C         -0.3033545433       -0.9302438345        0.7862947021
 H          0.1457375953       -0.5147930722        1.7021513447
 C         -0.0810657322       -2.4379417628        0.8057783830
 C          0.6337271009       -3.1845680520       -0.2776276598
 C          1.2984237257       -2.9755095073        1.0468739060
 H          1.4174318823       -3.8181747671        1.7107356780
 H          2.1039512250       -2.2574882710        1.0927578348
 H          0.2674915285       -4.1687290688       -0.5267320765
 H          1.0054839397       -2.6298000220       -1.1242156650
 H         -0.8963315938       -2.9640287367        1.2901928415
 O         -2.5830940260       -2.2093903114       -0.6245264808
