  62
        -98.93680283
 C          1.2537873412        0.5550553963        0.7961229190
 C          2.1721972993        0.6985623628       -0.2731771694
 C          2.8834976724       -0.5258084868       -0.6684595016
 C          2.5830259276       -1.6987497973       -0.0849839274
 C          3.1959655203       -3.0346257180       -0.4079241627
 C          4.5283840083       -3.3015917971        0.3059326948
 C          5.7201687281       -2.5008598704       -0.2204276844
 H          6.6189977957       -2.9411426988        0.2157885315
 H          5.7887799490       -2.6240180761       -1.3017045998
 C          5.6827501437       -1.0064873640        0.1285686393
 H          4.9694139592       -0.8399481881        0.9388434892
 H          6.6631302837       -0.6936029665        0.4945701565
 C          5.3224458429       -0.0908356157       -1.0413656613
 H          5.2889401241        0.9376949545       -0.6736243123
 H          6.0994624844       -0.1506541328       -1.8065986989
 C          3.9695004125       -0.4033602937       -1.6944892000
 H          4.0376809498       -1.3154821855       -2.2874509443
 H          3.7062740118        0.4249360499       -2.3570250138
 H          4.3982974046       -3.1036921319        1.3723846108
 H          4.7518503510       -4.3646426978        0.1897846793
 H          2.4743996294       -3.7909475004       -0.0906795750
 H          3.3333432744       -3.1215670923       -1.4863207717
 O          1.6384272330       -1.8084146236        0.8863422378
 C          0.9612148333       -0.6932275125        1.3473505365
 O          0.1300780569       -0.9410738966        2.2466089675
 O          2.3972423433        1.7777353148       -0.8757612865
 C          0.4390957212        1.7391998122        1.3115658979
 C         -0.3770341304        2.2316544603        0.1407266591
 C         -0.1503901614        3.3563013893       -0.6409534675
 C         -0.9292722678        3.5989421997       -1.7613237237
 C         -1.9201547107        2.7191419246       -2.1515627556
 C         -2.1543561903        1.5846070208       -1.3815099519
 C         -1.4126578309        1.3771926880       -0.2330195009
 H         -1.5989944844        0.4946081683        0.3597098130
 N         -3.1378481407        0.6525974493       -1.7422930554
 S         -2.9267208171       -0.9828365854       -1.4350665854
 O         -1.5314450258       -1.3518480684       -1.3794511895
 O         -3.7171556617       -1.6365532332       -2.4589612149
 C         -3.7391441470       -1.2184902488        0.1317717421
 C         -5.1067338988       -1.0192280089        0.1647796910
 C         -5.7824879196       -1.1859691415        1.3615909998
 C         -5.0826886629       -1.5475691268        2.5036277373
 C         -3.7124571971       -1.7472041005        2.4536639295
 C         -3.0298499274       -1.5841078701        1.2571258313
 H         -1.9604129926       -1.7243679078        1.2016267469
 H         -3.1582471118       -2.0234794702        3.3365680320
 H         -5.6063379409       -1.6756041562        3.4378673842
 H         -6.8488247739       -1.0329852038        1.4024884148
 H         -5.6113792953       -0.7491031761       -0.7477380234
 H         -3.5664292471        0.8132709856       -2.6419484330
 H         -2.4982788825        2.8969575298       -3.0455700308
 H         -0.7372174327        4.4790532131       -2.3566143063
 H          0.6504252935        4.0363018479       -0.4152153518
 H         -0.2777263742        1.2945456514        2.0203694739
 C          1.2939487434        2.6775467945        2.1484024820
 C          2.2885638869        3.6689996397        1.6288337068
 C          1.0354034462        4.1466526331        2.2997590098
 H          1.1219081632        4.5755609278        3.2871535715
 H          0.2583255341        4.5894983998        1.6981316854
 H          3.2210225226        3.7616750895        2.1680739242
 H          2.4065539662        3.7625623791        0.5623416032
 H          1.5990396293        2.1578442071        3.0546875169
