  62
        -98.94410496
 C          2.0890565999        1.3264188809       -0.1283230498
 C          2.4677490801        0.2736253710       -0.9961728698
 C          3.8529101902       -0.2022103788       -0.8592148197
 C          4.6693385500        0.3804282513        0.0368504503
 C          6.0802805801       -0.0454126785        0.3187001004
 C          6.1291973202       -1.0797042485        1.4520678004
 C          5.1438363303       -2.2354829387        1.2767706803
 H          5.2898632904       -2.9176100687        2.1171670003
 H          4.1237967703       -1.8507507088        1.3505694302
 C          5.2988506105       -3.0079431586       -0.0407756597
 H          5.2537635807       -4.0778394886        0.1736368003
 H          6.2784545505       -2.8060769185       -0.4756885496
 C          4.2138334006       -2.7164824788       -1.0793011398
 H          3.2276988706       -2.8278775389       -0.6205069398
 H          4.2918870107       -3.4662159287       -1.8713215498
 C          4.2822113804       -1.3367492687       -1.7462426897
 H          5.2878954104       -1.1649346186       -2.1350432197
 H          3.5837948705       -1.3406690888       -2.5882657498
 H          7.1454087002       -1.4725817684        1.5177349104
 H          5.8986659000       -0.5739196486        2.3925476704
 H          6.5176306002       -0.4615510384       -0.5866639496
 H          6.6526487499        0.8345418516        0.6169726005
 O          4.2776894398        1.4055769012        0.8352584603
 C          2.9807938897        1.8856704310        0.7909846903
 O          2.7463183995        2.8040039909        1.6013726103
 O          1.7027578302       -0.2484399391       -1.8492722299
 C          0.6729884398        1.8815069607       -0.1219848199
 C         -0.2489168401        0.8293193605        0.4442869800
 C         -0.3927071802        0.7170283804        1.8241027900
 C         -1.2098251700       -0.2538056497        2.3735179599
 C         -1.8978296998       -1.1355803298        1.5582433099
 C         -1.7520044998       -1.0369863897        0.1811415599
 C         -0.9425226899       -0.0527190396       -0.3698041900
 H         -0.8263984298        0.0026515405       -1.4403247500
 N         -2.4595570396       -1.9248595898       -0.6509671702
 S         -4.1122665796       -2.0120479001       -0.3961626303
 O         -4.3863018295       -2.9107950502        0.6974138897
 O         -4.6841324094       -2.3800376301       -1.6724649603
 C         -4.5840690599       -0.3507979902        0.0552806597
 C         -5.0980157100       -0.0972287003        1.3102167597
 C         -5.4060346702        1.2087313697        1.6568274997
 C         -5.1885008103        2.2335249897        0.7494102798
 C         -4.6728546402        1.9623201798       -0.5088407002
 C         -4.3662908700        0.6586497499       -0.8617089502
 H         -3.9686519099        0.4146602200       -1.8336716402
 H         -4.5033972803        2.7613958799       -1.2126903102
 H         -5.4220154605        3.2504457597        1.0227710698
 H         -5.8088124303        1.4227979096        2.6336708997
 H         -5.2452361299       -0.9231250603        1.9868266197
 H         -2.2453770695       -1.8132154098       -1.6313017702
 H         -2.5392878998       -1.9006577499        1.9652654498
 H         -1.3128539901       -0.3259850397        3.4455041899
 H          0.1537699697        1.3986050705        2.4611811601
 H          0.6883220096        2.7275796206        0.5773895201
 C          0.2450198998        2.3853413106       -1.4853632799
 C         -1.0072603703        3.2010455004       -1.5974943400
 C          0.3303772896        3.8499674506       -1.7858806299
 H          0.6215932096        4.1547484607       -2.7800508098
 H          0.6992846994        4.5000034507       -1.0059688698
 H         -1.6359973402        3.0633370904       -2.4638797200
 H         -1.5481889304        3.4066017303       -0.6861882400
 H          0.4798606200        1.7021707607       -2.2916456199
