  62
        -98.94056533
 C         -0.0993737948       -1.8602850189        0.1714644310
 C         -1.0875418228       -1.2291965238        0.9573196646
 C         -2.3125855547       -0.7967141266        0.2591980269
 C         -2.4001280726       -0.9702188058       -1.0719821904
 C         -3.5370213947       -0.6174986667       -1.9991334383
 C         -4.2324776833        0.7339602588       -1.7757487199
 C         -5.6425565669        0.6076772226       -1.1940781006
 H         -6.2111195950        1.4997133734       -1.4661145549
 H         -6.1333842179       -0.2468840096       -1.6645419785
 C         -5.7157396646        0.4584792144        0.3247247895
 H         -5.4639563206        1.4121702909        0.7934361450
 H         -6.7525833534        0.2320949522        0.5838154826
 C         -4.8133082845       -0.6251762344        0.9170645796
 H         -5.2210349043       -0.9068512997        1.8900460148
 H         -4.8310576994       -1.5182757667        0.2932625049
 C         -3.3638930435       -0.1617671969        1.1289256318
 H         -3.0486824191       -0.3895691773        2.1520251736
 H         -3.3066051778        0.9252201294        1.0237966520
 H         -3.6119179266        1.3729977626       -1.1490920511
 H         -4.3131557951        1.2261637740       -2.7467015895
 H         -4.2746136614       -1.4240311212       -1.9612866073
 H         -3.0981144310       -0.6442627302       -2.9994719171
 O         -1.4092556237       -1.5656863875       -1.7953124739
 C         -0.2411119747       -2.0153934433       -1.2068828969
 O          0.5684991403       -2.5359005230       -1.9983529263
 O         -0.9573398288       -1.0325940531        2.1964551226
 C          1.1939037603       -2.3110612890        0.8270511940
 C          2.3502473740       -1.5802382643        0.1901891752
 C          3.5227455318       -2.1967642739       -0.2247642136
 C          4.5127495856       -1.4600665372       -0.8528377462
 C          4.3488457313       -0.1088414731       -1.0944136327
 C          3.1847503274        0.5210898954       -0.6667273548
 C          2.2166299878       -0.2106136155       -0.0016809339
 H          1.3154870820        0.2809022425        0.3325705841
 N          2.9813537683        1.8917684519       -0.8800834264
 S          1.4383979909        2.4962786224       -1.1144271295
 O          0.5720112132        1.5584333313       -1.7894682332
 O          1.6563070972        3.7592960364       -1.7902051655
 C          0.8571051989        2.8258550526        0.5346890855
 C          1.6344957154        3.6215216729        1.3532550128
 C          1.1943370138        3.8884212860        2.6392752827
 C         -0.0075525255        3.3567689352        3.0825425778
 C         -0.7789726217        2.5642629244        2.2470345480
 C         -0.3453337665        2.2978363812        0.9581412533
 H         -0.9075785903        1.6725728878        0.2801136798
 H         -1.7055030432        2.1370756890        2.5953617250
 H         -0.3472343163        3.5578976992        4.0862442327
 H          1.7896865556        4.5048695877        3.2933213358
 H          2.5610164329        4.0147014832        0.9697618304
 H          3.6631039430        2.3404942379       -1.4739789992
 H          5.1084321072        0.4554023988       -1.6136674145
 H          5.4174106219       -1.9510199817       -1.1783657336
 H          3.6563838440       -3.2551645937       -0.0725462781
 H          1.1174989347       -1.9953395598        1.8782463942
 C          1.3244245102       -3.8183615573        0.7752755273
 C          2.0903485479       -4.5483265051        1.8369727318
 C          0.5958020346       -4.6434765353        1.7919743031
 H          0.1447242387       -5.5715835200        1.4744520870
 H          0.0248170605       -4.1144634366        2.5408307682
 H          2.6660979921       -5.4161104196        1.5525729955
 H          2.5361010135       -3.9602817231        2.6246803382
 H          1.3642273925       -4.1959786713       -0.2405045168
