  62
        -98.93707139
 C         -1.9883464423       -0.9328648187        0.5912206662
 C         -2.0705898293       -0.1748711180       -0.6003811662
 C         -2.2597094322        1.2716583807       -0.4290503741
 C         -2.2746911670        1.7993182383        0.8076460258
 C         -2.3834043620        3.2592967445        1.1620167519
 C         -3.7095773272        3.9541308709        0.7957842044
 C         -3.6961958987        4.6671762700       -0.5619445633
 H         -4.2328976683        5.6131858078       -0.4664058580
 H         -2.6649721183        4.9149810461       -0.8163219783
 C         -4.3395298507        3.9035042300       -1.7231727036
 H         -5.4261059452        3.9788395243       -1.6409070077
 H         -4.0442773486        4.3969928603       -2.6514826871
 C         -3.9906030095        2.4181236674       -1.8199591640
 H         -4.3410932746        2.0475123357       -2.7851517732
 H         -4.5395155669        1.8612053098       -1.0569083269
 C         -2.4916518221        2.0952282552       -1.6620832724
 H         -2.1456110881        1.4927887113       -2.5045160390
 H         -1.8977262106        3.0075298956       -1.6290126217
 H         -4.5219403815        3.2292761757        0.8391107018
 H         -3.8986678941        4.6992508048        1.5701161268
 H         -2.2421253883        3.3057113334        2.2439739005
 H         -1.5504763755        3.7908498398        0.6954574113
 O         -2.1463319636        1.0377136024        1.9303627161
 C         -2.0087418739       -0.3376436360        1.8507654367
 O         -1.9173710415       -0.9115607402        2.9569240435
 H          0.5591234910       -1.2331744690        0.8818385864
 C          0.6228711125       -1.9743922478        0.0969835923
 C         -0.5018461383       -2.7196820849       -0.2349876054
 C         -0.3929451525       -3.6778023422       -1.2339561994
 C          0.8058251136       -3.8545840748       -1.9036708305
 C          1.9101568823       -3.0810732078       -1.5996041132
 C          1.8167531505       -2.1341244706       -0.5847344512
 N          2.9289843221       -1.3523528794       -0.2250315911
 S          2.6668647650        0.2153848399        0.3428166178
 O          2.3364618513        0.1525703429        1.7457061809
 O          1.7329597117        0.9181325593       -0.5084819968
 C          4.3092570926        0.8846744636        0.1503660277
 C          5.2744158016        0.5340037268        1.0758682254
 C          6.5631819429        1.0173310599        0.9157630205
 C          6.8642134104        1.8385874304       -0.1609319274
 C          5.8849405063        2.1837240021       -1.0800337190
 C          4.5940317402        1.7017763862       -0.9269472152
 H          3.7980558088        1.9463845546       -1.6120203181
 H          6.1206000174        2.8245450970       -1.9143243552
 H          7.8679590662        2.2137096369       -0.2829976267
 H          7.3263249039        0.7525950948        1.6296218058
 H          4.9897717968       -0.0986385641        1.9003605810
 H          3.6624752992       -1.3734329912       -0.9208595429
 H          2.8370700654       -3.2057965865       -2.1383215306
 H          0.8754322796       -4.5954866677       -2.6856341920
 H         -1.2495922333       -4.2755377455       -1.4985925786
 C         -1.7797990095       -2.4348219978        0.5171994546
 H         -1.6499622587       -2.7759875123        1.5553291722
 C         -2.9981611216       -3.1120669913       -0.0746377418
 C         -3.3455911255       -4.5167367173        0.3145337455
 C         -4.1790851442       -3.3741203100        0.8092912048
 H         -5.1691286536       -3.2397600967        0.4002979127
 H         -4.0923944703       -3.0853678025        1.8470047830
 H         -2.6985566063       -5.0133445108        1.0216751928
 H         -3.7685047968       -5.1696955373       -0.4338820080
 H         -3.1945743976       -2.7949772369       -1.0923262445
 O         -1.9928369056       -0.6792129028       -1.7517339775
