  62
        -98.93972057
 C          2.4789030486        1.0289468681       -0.0977549863
 C          3.7097704460        1.0898928826        0.5985894166
 C          4.8607904222        0.4741559395       -0.0743214754
 C          4.6894453147       -0.0929005540       -1.2826674098
 C          5.7612936226       -0.8056171678       -2.0543897776
 C          5.7782038771       -2.3050217144       -1.7256548582
 C          5.7744657976       -2.6093159578       -0.2275477316
 H          4.8238819772       -2.2819729098        0.2002817111
 H          5.8182316067       -3.6949573063       -0.1161884765
 C          6.9300376668       -1.9680501155        0.5535278359
 H          7.7234503141       -1.6733535385       -0.1342197020
 H          7.3496186743       -2.7135103890        1.2323652581
 C          6.5278533715       -0.7646290088        1.4081355308
 H          5.6714927565       -1.0297111024        2.0335541337
 H          7.3600301909       -0.5291731537        2.0769738011
 C          6.1838220066        0.5163136434        0.6374805708
 H          6.1070514937        1.3301140448        1.3644970264
 H          6.9896347444        0.7535653233       -0.0599367800
 H          6.6620298280       -2.7496716555       -2.1866503938
 H          4.8935293164       -2.7669177591       -2.1700695652
 H          5.5596824015       -0.6789736014       -3.1193566304
 H          6.7267626109       -0.3607486689       -1.8215379375
 O          3.4943618483       -0.1225302694       -1.9251008027
 C          2.3567922088        0.4237413220       -1.3485696082
 O          1.3283715685        0.3139891340       -2.0420042000
 H         -1.3434097902        1.3484928593       -0.3966567266
 C         -1.0353743677        0.5300850170        0.2348659282
 C          0.2332874623        0.5253806492        0.7898840793
 C          0.5997046224       -0.5448619844        1.6028919767
 C         -0.2754790300       -1.5868432003        1.8382218257
 C         -1.5353353722       -1.5889969897        1.2646448747
 C         -1.9133927696       -0.5253990075        0.4578493730
 N         -3.1808248364       -0.5279970402       -0.1493475585
 S         -4.4976924412       -1.0557704826        0.7645287013
 O         -4.4712040586       -0.4434800502        2.0743405644
 O         -4.5226481696       -2.4971037301        0.7464577190
 C         -5.8538074403       -0.4154014058       -0.1972064239
 C         -6.4446508322        0.7774783642        0.1739103865
 C         -7.4822408053        1.2791709108       -0.5960672471
 C         -7.9062781933        0.5851153563       -1.7192732673
 C         -7.3029128431       -0.6109671226       -2.0790800554
 C         -6.2659476916       -1.1190367618       -1.3130472726
 H         -5.7735652383       -2.0479473334       -1.5490206950
 H         -7.6370692414       -1.1485084576       -2.9518038613
 H         -8.7140441394        0.9775712526       -2.3166378427
 H         -7.9552588683        2.2071145801       -0.3176213280
 H         -6.0880049223        1.2784357646        1.0596127382
 H         -3.3813402109        0.3422152435       -0.6224399172
 H         -2.2281383717       -2.3970380661        1.4363758766
 H          0.0234216299       -2.4088419999        2.4717961081
 H          1.5860406707       -0.5472720534        2.0472824887
 C          1.2413093389        1.6228074004        0.5521701758
 H          1.5767691247        1.9936129896        1.5316763691
 C          0.7132036810        2.7891742602       -0.2546594794
 C         -0.1454590933        3.8262027462        0.4042238495
 C          1.2605423488        4.1589954288        0.0069499342
 H          1.4178642225        4.8196729672       -0.8323247245
 H          2.0043014145        4.2567237423        0.7840974415
 H         -0.9535634514        4.2640758876       -0.1620539628
 H         -0.3602172122        3.7010883842        1.4548220933
 H          0.5017970934        2.5254879120       -1.2847166105
 O          3.8386040274        1.6312963119        1.7299015202
