  62
        -98.94878335
 C         -0.9450459878       -1.2834148850        0.0454988742
 C         -1.9174452714       -1.0338055511        1.0407182013
 C         -2.6437733895        0.2371110245        0.9249024914
 C         -2.3268586115        1.0855592637       -0.0702396909
 C         -3.0162643957        2.3937146184       -0.3288045147
 C         -4.1886976764        2.2213122888       -1.3044645174
 C         -5.1344772002        1.0789783520       -0.9342175324
 H         -5.9398267488        1.0706377364       -1.6717248073
 H         -4.6013110688        0.1302976373       -1.0281870912
 C         -5.7340558649        1.1833287305        0.4750377389
 H         -5.6345221291        2.2039111894        0.8465306548
 H         -6.8018830868        0.9615126146        0.4193153468
 C         -5.1317295523        0.2139927978        1.4940328483
 H         -5.1456213829       -0.8004842811        1.0875520577
 H         -5.7663138616        0.2181617643        2.3843703924
 C         -3.7014417480        0.5281726213        1.9519522434
 H         -3.6393770239        1.5661110312        2.2868455127
 H         -3.4749477502       -0.1179392458        2.8056326745
 H         -4.7459424206        3.1590179831       -1.3438892819
 H         -3.7844435385        2.0218176413       -2.2992483743
 H         -3.3712050571        2.8027422110        0.6153692291
 H         -2.2920368892        3.0859528774       -0.7608533500
 O         -1.3677446199        0.8234959658       -0.9931798018
 C         -0.6512418457       -0.3635489944       -0.9613785523
 O          0.1991888832       -0.4772890654       -1.8627193014
 H          1.0854783479       -0.5044878372        1.2807307998
 C          1.7888686671       -1.1804062400        0.8169539405
 C          1.3295480635       -2.3083979888        0.1505680879
 C          2.2637743407       -3.1679732842       -0.4163445044
 C          3.6168856439       -2.8932212830       -0.3264545321
 C          4.0675152791       -1.7530142975        0.3130747244
 C          3.1412786232       -0.8890375860        0.8861106463
 N          3.5556443710        0.2824125317        1.5411325472
 S          2.6647753400        1.6841527563        1.4077190136
 O          3.5883754973        2.7247450903        1.8152041575
 O          1.4556625248        1.5939791001        2.1901645819
 C          2.2640094692        1.9207733842       -0.3147199422
 C          1.1123073019        2.6192818839       -0.6114189081
 C          0.8077121382        2.8847192388       -1.9358269569
 C          1.6545486237        2.4437837017       -2.9387632165
 C          2.8086113271        1.7452547826       -2.6255353846
 C          3.1241042222        1.4860617119       -1.3021237587
 H          4.0173549298        0.9419720728       -1.0426829396
 H          3.4617265238        1.3947784393       -3.4084179749
 H          1.4081372429        2.6390825654       -3.9705227137
 H         -0.0948445931        3.4213420579       -2.1817764778
 H          0.4697395310        2.9247222386        0.2003040330
 H          4.5471295192        0.4695050004        1.5051800336
 H          5.1223836736       -1.5319202809        0.3725011994
 H          4.3303566987       -3.5704395741       -0.7703751256
 H          1.9299280939       -4.0541232235       -0.9308716255
 C         -0.1546653068       -2.5754708534        0.0937897696
 H         -0.4504522866       -3.0663867774        1.0340513673
 C         -0.5478480475       -3.4706408148       -1.0659492033
 C         -0.6003440646       -4.9594587612       -0.9007453322
 C         -1.8704724338       -4.1734404279       -1.0170494285
 H         -2.4485881821       -4.2517028031       -1.9255456169
 H         -2.4699650351       -4.0338601245       -0.1290127497
 H         -0.3078530321       -5.5813699446       -1.7334203241
 H         -0.3473087623       -5.3662423369        0.0668128410
 H         -0.2288945184       -3.0702831887       -2.0218437191
 O         -2.1657782692       -1.8367985565        1.9825996642
