  62
        -98.94221650
 C         -1.8762185547       -1.3227194752       -0.0378924903
 C         -3.0421939530       -1.1998662235        0.7632833716
 C         -4.2015295281       -0.5567272399        0.1371033810
 C         -4.1247120887       -0.1490852785       -1.1422189538
 C         -5.2272716821        0.4972171781       -1.9360271697
 C         -5.3446775359        2.0122998265       -1.7207521186
 C         -5.9151529927        2.4342257858       -0.3660985113
 H         -6.1447209812        3.4995742764       -0.4332091022
 H         -6.8546279859        1.9095635048       -0.1894713798
 C         -4.9661981158        2.2082894350        0.8194323797
 H         -3.9473681466        2.0675202488        0.4503421650
 H         -4.9547606967        3.0990866206        1.4516498363
 C         -5.3368240628        1.0241186342        1.7127236391
 H         -4.5784427423        0.9358455447        2.4949437791
 H         -6.2976439934        1.2163351327        2.1953208411
 C         -5.4190000253       -0.3206156787        0.9784178285
 H         -5.4670143247       -1.1168785536        1.7251890918
 H         -6.3192891855       -0.3602104887        0.3654781623
 H         -4.3584438852        2.4625163460       -1.8565741543
 H         -5.9985808015        2.4031314891       -2.5037944869
 H         -5.0003078934        0.3157127631       -2.9888847587
 H         -6.1783333721        0.0200268895       -1.6981252243
 O         -2.9997325812       -0.3023236599       -1.8861680372
 C         -1.8412341557       -0.8600872148       -1.3539891994
 O         -0.8888429615       -0.8736382438       -2.1563653148
 O         -3.1106235412       -1.6199899658        1.9490324672
 C         -0.6742881098       -1.9819369586        0.6158782123
 C          0.2741873017       -0.9648572399        1.1966073481
 C          0.7542759944       -1.0957896291        2.4943771793
 C          1.6428500141       -0.1704865548        3.0150013933
 C          2.0720670003        0.9012088137        2.2529526729
 C          1.5976401832        1.0410160067        0.9548245187
 C          0.7066423120        0.1128015539        0.4356929381
 H          0.3465807781        0.2251224985       -0.5765255773
 N          2.0325500661        2.1241940117        0.1630928390
 S          3.6854382172        2.2503087769       -0.0899957342
 O          4.3158883390        2.6767525897        1.1337222304
 O          3.8365277924        3.1290576621       -1.2268077755
 C          4.2056496010        0.5965495607       -0.5034242075
 C          4.0711874456        0.1754487159       -1.8115206659
 C          4.4059371844       -1.1297447486       -2.1334129458
 C          4.8526299886       -1.9912275199       -1.1430396755
 C          4.9791198198       -1.5537345571        0.1661723126
 C          4.6541814964       -0.2469608860        0.4932569337
 H          4.7461407399        0.1335429261        1.4969442384
 H          5.3256412766       -2.2266518884        0.9335990266
 H          5.1011293988       -3.0100116634       -1.3938986027
 H          4.3071412057       -1.4714815035       -3.1511074925
 H          3.7186749808        0.8754226808       -2.5523810410
 H          1.5525341522        2.1744816885       -0.7247062745
 H          2.7668797221        1.6295329726        2.6388921159
 H          2.0035882494       -0.2828905469        4.0259526767
 H          0.4161627518       -1.9233133600        3.1005460891
 H         -1.0984686428       -2.5519261930        1.4575731047
 C          0.0280948927       -2.9814736090       -0.2939113111
 C          1.3445882954       -2.7229487565       -0.9556616103
 C          1.2595215361       -3.6975802134        0.1776263914
 H          1.3565104899       -4.7513414396       -0.0337680236
 H          1.6770980764       -3.3933244953        1.1252837323
 H          1.4791434682       -3.0954248095       -1.9592611777
 H          1.8300382123       -1.7762690047       -0.7796324563
 H         -0.6865167415       -3.5662899568       -0.8650892793
