  62
        -98.95135988
 C         -2.3394057850       -0.0703630547        0.1131590532
 C         -1.6106805907        0.4907200360       -0.9619580529
 C         -1.4384341748        1.9478515514       -0.9274101484
 C         -1.8818261067        2.6446953587        0.1345698145
 C         -1.7838898628        4.1343690761        0.3222159532
 C         -0.4220361841        4.6047515012        0.8508279077
 C          0.7101121551        4.6020384237       -0.1768124216
 H          0.3830232022        5.1223606925       -1.0781987011
 H          1.5322914021        5.1773543268        0.2536311954
 C          1.2308351179        3.2058286756       -0.5451440889
 H          2.3242202733        3.2192015258       -0.5591564352
 H          0.9388657023        2.4873913741        0.2248475355
 C          0.7707013851        2.6950582196       -1.9097154076
 H          1.1864376850        1.6956196800       -2.0502768919
 H          1.1716176640        3.3411594346       -2.6945309020
 C         -0.7509312331        2.6116615243       -2.0842230158
 H         -1.1630592880        3.6100435074       -2.2340646593
 H         -0.9571476924        2.0119368230       -2.9745618186
 H         -0.5492736586        5.6260432525        1.2181819276
 H         -0.1400585283        3.9766902266        1.6997999299
 H         -2.0052903870        4.6401653360       -0.6183955320
 H         -2.5502491982        4.4053168912        1.0518241589
 O         -2.5121138201        2.0574046017        1.1865407132
 C         -2.7601439784        0.6956644771        1.1992782528
 O         -3.3615523137        0.2903669512        2.2168901398
 O         -1.1381486019       -0.1879523141       -1.9118268619
 C         -2.6106452124       -1.5648289714        0.1535685675
 C         -1.3014393983       -2.3152454860        0.1966177752
 C         -1.0206491729       -3.4312834381       -0.5814831525
 C          0.2159090224       -4.0489809819       -0.4987621047
 C          1.2024822750       -3.5550031755        0.3354973129
 C          0.9276066818       -2.4429067368        1.1229928413
 C         -0.3254524455       -1.8552991620        1.0712765396
 H         -0.5287861980       -0.9959452113        1.6935681219
 N          1.9042688333       -1.8708322621        1.9655790924
 S          2.3541735929       -0.2913459238        1.6222496836
 O          3.4308432404        0.0007724635        2.5440740474
 O          1.2056725388        0.5740951896        1.6893098091
 C          3.0059724681       -0.3789878393       -0.0363578431
 C          4.3772069614       -0.3626867698       -0.2083954756
 C          4.8980009005       -0.5100229525       -1.4834249479
 C          4.0426582001       -0.6861048391       -2.5610637444
 C          2.6701105165       -0.7068678434       -2.3712364490
 C          2.1407236529       -0.5506280804       -1.0986010296
 H          1.0741071784       -0.5546624983       -0.9372206571
 H          1.9940701159       -0.8414427514       -3.2007361734
 H          4.4460028750       -0.8071314394       -3.5539814712
 H          5.9656593532       -0.4915981387       -1.6319356848
 H          5.0016558243       -0.2274577320        0.6599579582
 H          2.7364678581       -2.4364637492        2.0660258273
 H          2.1759228514       -4.0198483005        0.3776028858
 H          0.4206792026       -4.9156718622       -1.1083274201
 H         -1.7678120882       -3.8139109198       -1.2571603030
 H         -3.1383795597       -1.7498796447        1.1011037473
 C         -3.5070587331       -1.9740716619       -0.9962628058
 C         -4.4264579502       -3.1488212570       -0.8545927821
 C         -4.9843695620       -1.7582902926       -0.8725705056
 H         -5.5329395577       -1.4310556903       -1.7429090744
 H         -5.3472637954       -1.3381169900        0.0545655841
 H         -4.5972661058       -3.7776280056       -1.7153174701
 H         -4.4205022258       -3.6782985287        0.0862355843
 H         -3.0542973793       -1.7890512823       -1.9632972270
