  62
        -98.94175914
 C         -2.2319312996       -1.1958360519        0.3551372897
 C         -1.9903106406       -0.2918030615       -0.7095510302
 C         -2.6477423717        1.0206871879       -0.5952379699
 C         -3.3517076817        1.3175606271        0.5111596703
 C         -3.9976702328        2.6433297965        0.7884922707
 C         -3.0358702635        3.5853168372        1.5271975506
 C         -1.6517758037        3.6880578485        0.8851742204
 H         -1.0749378642        4.4031867289        1.4758180204
 H         -1.1469991329        2.7222868789        0.9656632802
 C         -1.6671842143        4.1285302887       -0.5851760295
 H         -2.6266956848        4.5895191780       -0.8223631693
 H         -0.8989761150        4.8902024494       -0.7326843295
 C         -1.3828926836        3.0051527692       -1.5833752397
 H         -1.2085486241        3.4569741995       -2.5630686397
 H         -0.4707989331        2.4772869999       -1.2956779300
 C         -2.4980970327        1.9672865682       -1.7530391897
 H         -2.2405883423        1.3466330186       -2.6161535799
 H         -3.4450503632        2.4701071675       -1.9604552095
 H         -3.4920217943        4.5759937768        1.5724209509
 H         -2.9136989230        3.2218575371        2.5503972006
 H         -4.8772194626        2.4748726857        1.4122740308
 H         -4.3124147534        3.0924524464       -0.1515293492
 O         -3.5044113508        0.4485485168        1.5438295902
 C         -2.9567167498       -0.8226849727        1.4898175599
 O         -3.1698604990       -1.5131037731        2.5075279798
 O         -1.2714867406       -0.5501404907       -1.7073519604
 C         -1.6495754785       -2.5993738214        0.3591502393
 C         -0.1842590986       -2.5514863501        0.0015048391
 C          0.3551108417       -3.1474684894       -1.1299887611
 C          1.7128327116       -3.0605752083       -1.3841527914
 C          2.5590008812       -2.3902355777       -0.5200473714
 C          2.0285683709       -1.7823822583        0.6112538688
 C          0.6665550210       -1.8664175695        0.8606853290
 H          0.2505520508       -1.3935132500        1.7426565592
 N          2.8690422505       -1.1191151078        1.5206507288
 S          4.1123896196       -0.1283010466        1.0108283687
 O          5.1212079201       -0.9216204257        0.3552916184
 O          4.5272376692        0.5758624835        2.2028047088
 C          3.3916150284        1.0199753530       -0.1456710210
 C          2.7391728575        2.1271864223        0.3603600594
 C          2.1640939666        3.0277685020       -0.5203026904
 C          2.2422100266        2.8013924723       -1.8864954904
 C          2.8934407474        1.6814856229       -2.3782483507
 C          3.4765140883        0.7799979633       -1.5017648610
 H          4.0034247790       -0.0935611862       -1.8477655413
 H          2.9485068274        1.5065895632       -3.4405333308
 H          1.7919577858        3.5030412820       -2.5707039102
 H          1.6547608660        3.8987835915       -0.1399927501
 H          2.7107536176        2.2737730321        1.4284104994
 H          2.3826662503       -0.7067903583        2.3024719489
 H          3.6203526211       -2.3351153168       -0.6985653416
 H          2.1203933219       -3.5259105378       -2.2688267215
 H         -0.2903472179       -3.6608758299       -1.8231079811
 H         -1.7230358180       -2.9316113716        1.4081409693
 C         -2.4383725077       -3.6072861119       -0.4632824307
 C         -3.9228360379       -3.4731920632       -0.6227608504
 C         -3.0221039383       -3.2843231122       -1.8043876005
 H         -3.0099960377       -4.0526846220       -2.5637712307
 H         -2.8759874192       -2.2881560720       -2.1893266504
 H         -4.5279374671       -4.3658181037       -0.5702350305
 H         -4.3942860686       -2.6012592336       -0.1923098302
 H         -2.0609999369       -4.6164527116       -0.3276343509
