  62
        -98.94313218
 C         -0.8521418270       -1.3742986711        0.0198093720
 C         -1.8627125437       -1.1520253132        0.9804017355
 C         -2.6695492673        0.0688705731        0.8177691213
 C         -2.4043260307        0.9038379601       -0.2042119989
 C         -3.0240252549        2.2340999760       -0.5801589146
 C         -4.3884319515        2.6460666359       -0.0314603943
 C         -5.5573488971        1.7748708829       -0.4876978339
 H         -6.4587578382        2.1262300818        0.0193657828
 H         -5.7021058437        1.9174063386       -1.5613906033
 C         -5.3994389684        0.2773438383       -0.2361148946
 H         -4.5826058219       -0.1141085784       -0.8457248439
 H         -6.3159166902       -0.2160302243       -0.5708340584
 C         -5.1637958330       -0.1197912240        1.2204262276
 H         -5.9410605334        0.3151832004        1.8516386344
 H         -5.2534500734       -1.2076051726        1.2819982904
 C         -3.7884340279        0.2613248811        1.7998058022
 H         -3.7855426421        1.2778490765        2.1877612384
 H         -3.5776338863       -0.4068003439        2.6402267398
 H         -4.5731905509        3.6616870696       -0.3924883615
 H         -4.3587096724        2.6994693926        1.0530242811
 H         -2.2944047390        2.9970220398       -0.2858996618
 H         -3.0625773877        2.2421364414       -1.6737800260
 O         -1.4030134089        0.6560410293       -1.0975894067
 C         -0.6054398050       -0.4732132515       -1.0142611195
 O          0.2632022042       -0.5576199260       -1.9012760664
 H          1.1152012659       -0.4402954923        1.2630267312
 C          1.8627562894       -1.0870945425        0.8275340928
 C          1.4777521583       -2.2585040303        0.1893702446
 C          2.4670034601       -3.0784198009       -0.3419208723
 C          3.8008695614       -2.7239014937       -0.2448097364
 C          4.1771170811       -1.5425690377        0.3674120549
 C          3.1955942567       -0.7174847782        0.9047884449
 N          3.5366032159        0.4919573318        1.5320160848
 S          2.5593083365        1.8318331609        1.3793745451
 O          3.4181387375        2.9361956282        1.7595821193
 O          1.3638070609        1.6811945230        2.1735799775
 C          2.1284977705        2.0128103843       -0.3424401241
 C          0.9463900453        2.6619580920       -0.6315851298
 C          0.6072194970        2.8904556080       -1.9542783940
 C          1.4524582962        2.4611625073       -2.9637981075
 C          2.6370951487        1.8119630989       -2.6587656721
 C          2.9864128261        1.5905823778       -1.3368526482
 H          3.9032169108        1.0835013232       -1.0846078573
 H          3.2879741116        1.4692226767       -3.4468807659
 H          1.1807125244        2.6260972281       -3.9944766558
 H         -0.3192932089        3.3882523261       -2.1920432064
 H          0.3097158503        2.9590148688        0.1878995782
 H          4.5145148816        0.7394220403        1.4907808524
 H          5.2166662440       -1.2594335173        0.4329059423
 H          4.5575941449       -3.3710264602       -0.6610953234
 H          2.1912803562       -3.9965090680       -0.8342814429
 C          0.0125989928       -2.6139193206        0.1250725115
 H         -0.2668942399       -3.0879163146        1.0788598337
 C         -0.3120455292       -3.5711245201       -1.0060785414
 C         -0.2731243714       -5.0538818657       -0.7898427736
 C         -1.5885439191       -4.3535891968       -0.9439875465
 H         -2.1509459235       -4.4987046852       -1.8541077212
 H         -2.2051007390       -4.2214582845       -0.0666619620
 H          0.0664928446       -5.6842257825       -1.5979656375
 H         -0.0052136280       -5.4107576297        0.1932813881
 H         -0.0086736200       -3.1843392798       -1.9726454550
 O         -2.0816718390       -1.9391525777        1.9427456364
