  62
        -98.93636333
 C         -0.7400432835       -1.2733733012        0.9162748893
 C         -1.2422456887       -1.0963646620       -0.3971563703
 C         -2.1197967522        0.0694247610       -0.6023100543
 C         -2.3583626998        0.9051408071        0.4233848231
 C         -3.2662361482        2.1022661319        0.3862088515
 C         -4.7404868457        1.6553617794        0.4494091236
 C         -5.5455180826        1.9629412790       -0.8130307326
 H         -6.4904275953        1.4204755953       -0.7399586347
 H         -5.7778871708        3.0296818841       -0.8356152119
 C         -4.8662630530        1.6034603009       -2.1379467904
 H         -5.6383689242        1.6294034036       -2.9099013374
 H         -4.1385455581        2.3730262967       -2.4008346225
 C         -4.1695513155        0.2373313841       -2.1835543315
 H         -4.3511947905       -0.2038322795       -3.1657596107
 H         -4.6015860559       -0.4399942531       -1.4464196961
 C         -2.6418262677        0.2878529538       -1.9947101986
 H         -2.1868770059       -0.5101929711       -2.5895912985
 H         -2.2487388993        1.2333403977       -2.3814605591
 H         -4.7642874119        0.5813218707        0.6445133809
 H         -5.2317076359        2.1400126302        1.2944050436
 H         -3.0214574638        2.7231025383        1.2484850482
 H         -3.0766128414        2.6754794330       -0.5192747652
 O         -1.8380473713        0.7166492218        1.6646286826
 C         -0.9999802020       -0.3536580771        1.9335407577
 O         -0.5521766537       -0.3710282409        3.0970306863
 O         -0.9800446465       -1.8665254740       -1.3564776981
 C          0.2492441813       -2.3794843507        1.2473050650
 C          1.3371316327       -2.3841282133        0.2005008220
 C          1.7676888019       -3.5119583335       -0.4839039556
 C          2.7607257462       -3.4068258102       -1.4433468458
 C          3.3268090527       -2.1837895755       -1.7525482588
 C          2.9031059619       -1.0486636842       -1.0704345394
 C          1.9394467065       -1.1647239905       -0.0849793759
 H          1.6152023764       -0.2821093610        0.4475023540
 N          3.4449253915        0.2187949883       -1.3420643629
 S          2.4188870223        1.5433185378       -1.3850154389
 O          1.1177902505        1.2104336359       -1.9143492920
 O          3.1645352484        2.5428068830       -2.1235060378
 C          2.2805029475        2.0724278325        0.3082938567
 C          3.4281084953        2.2226746453        1.0608569474
 C          3.3123615621        2.6504105348        2.3738035996
 C          2.0609937378        2.9209756589        2.9069577065
 C          0.9188671392        2.7720957936        2.1356606120
 C          1.0286945914        2.3463481361        0.8220776667
 H          0.1652569987        2.1990333587        0.1903170167
 H         -0.0562070789        2.9665436316        2.5532255102
 H          1.9706898748        3.2458068466        3.9314004020
 H          4.1963171182        2.7675809134        2.9797864730
 H          4.3815867776        1.9995249015        0.6120838370
 H          4.1067043874        0.2419964030       -2.1048501753
 H          4.0815839494       -2.1025740732       -2.5200815797
 H          3.0847576105       -4.2896730476       -1.9735762401
 H          1.3112966452       -4.4681401103       -0.2872957539
 H          0.7086833406       -2.0644645735        2.1994919273
 C         -0.3690479751       -3.7456354110        1.5010392721
 C         -1.8022613944       -3.8787679477        1.9198212483
 C         -1.3678311095       -4.3632591503        0.5708344843
 H         -1.3188390152       -5.4294396450        0.4028795760
 H         -1.6533140864       -3.7950283141       -0.2997311101
 H         -2.0500731876       -4.6076513580        2.6769670628
 H         -2.3927230854       -2.9752800533        1.9725813657
 H          0.3312286832       -4.4230436864        1.9801272343
