  62
        -98.94818857
 C         -1.1243647295       -1.5598570314        0.4548502283
 C         -1.9447686101       -1.1710159201       -0.6320773207
 C         -3.0029917307       -0.1992431014       -0.3197933087
 C         -3.1432840706        0.2441371063        0.9422623421
 C         -4.1824863512        1.2260109348        1.3994418841
 C         -3.6661206023        2.6697986152        1.3588536464
 C         -3.0090020330        3.0626517880        0.0353746568
 H         -2.7508556537        4.1223005280        0.1054093785
 H         -2.0661777426        2.5229854689       -0.0829553044
 C         -3.8835808332        2.8353427494       -1.2052471133
 H         -4.9324430331        2.7613329282       -0.9137006631
 H         -3.7877747641        3.7057282506       -1.8579817518
 C         -3.4968339326        1.6123444911       -2.0398176455
 H         -2.4166160227        1.6215598922       -2.2112354758
 H         -3.9856091330        1.6972870824       -3.0144879252
 C         -3.8834017714        0.2492087599       -1.4509756477
 H         -4.9325063413        0.2631529286       -1.1469107673
 H         -3.7629248611       -0.5009604587       -2.2382667990
 H         -4.5056844827        3.3385200543        1.5605681978
 H         -2.9296952221        2.8001336944        2.1553568563
 H         -5.0637090213        1.1284675952        0.7681045742
 H         -4.4549118707        0.9784968428        2.4274104937
 O         -2.3334118400       -0.1483067648        1.9587521111
 C         -1.2935706194       -1.0390743637        1.7363159593
 O         -0.6054555289       -1.2868507149        2.7479264186
 H          0.5283236091        0.0164020013       -0.3838673095
 C          1.1655270894       -0.6587658673       -0.9315349909
 C          1.0096069405       -2.0267751877       -0.7688391332
 C          1.8196080009       -2.8764285859       -1.5145065249
 C          2.7469343402       -2.3588846537       -2.4016938043
 C          2.8977487292       -0.9926584633       -2.5589721620
 C          2.0919752988       -0.1351093051       -1.8189917903
 N          2.1933273477        1.2547336752       -1.9586076280
 S          1.7818306073        2.2835534128       -0.7135713861
 O          0.3534288974        2.3118538514       -0.5270691756
 O          2.3959348963        3.5414244838       -1.0825697741
 C          2.5939453983        1.6222911109        0.7299828125
 C          1.8529218490        1.1192234886        1.7784957219
 C          2.5111847698        0.5694762572        2.8669741908
 C          3.8964955598        0.5407917582        2.8912599603
 C          4.6300534591        1.0642382105        1.8365794409
 C          3.9754834383        1.6062379519        0.7431546921
 H          4.5117742077        2.0283372137       -0.0909919074
 H          5.7076319491        1.0458813112        1.8625267106
 H          4.4052175604        0.1094045271        3.7388252994
 H          1.9275580503        0.1547123454        3.6737619203
 H          0.7750191490        1.1508743578        1.7353603023
 H          2.9703233073        1.5881123467       -2.5079537376
 H          3.6189902886       -0.5918811816       -3.2542099016
 H          3.3652425905       -3.0297663922       -2.9784364856
 H          1.7182703717       -3.9438770461       -1.4043645966
 C          0.0093846412       -2.5428671302        0.2394846063
 H          0.5253657016       -2.6275185714        1.2083665060
 C         -0.5440252479       -3.9049423299       -0.1358122359
 C          0.1070971331       -5.1593587003        0.3620233218
 C         -1.2131495770       -4.7273885822        0.9231558330
 H         -2.0986154967       -5.2864656924        0.6605803523
 H         -1.2362188370       -4.3186636439        1.9232860637
 H          0.1270467836       -6.0216508192       -0.2874360697
 H          0.9774675833       -5.0579936607        0.9927395517
 H         -0.9836920182       -3.9130267986       -1.1265132657
 O         -1.8080843401       -1.6183919780       -1.8009859516
