  62
        -98.93130927
 C          2.7476184128        0.7984854458        0.0027349709
 C          2.4536175961       -0.1776257790       -0.9767882100
 C          2.6952566680       -1.5899990009       -0.6082465210
 C          3.1481767248       -1.8769130990        0.6250564176
 C          3.4219073975       -3.2249529629        1.2380938173
 C          2.1386006083       -3.9648016984        1.6441739356
 C          1.0305323522       -3.9541960839        0.5946705450
 H          0.1571384514       -4.4453846440        1.0325960584
 H          0.7366800087       -2.9226296804        0.3877382761
 C          1.3657932323       -4.6722509865       -0.7109636986
 H          1.6328021070       -5.7081265477       -0.4899677267
 H          0.4535064393       -4.6849239100       -1.3126528017
 C          2.4801987459       -4.0497294295       -1.5562180456
 H          3.4624608744       -4.3083975749       -1.1700668547
 H          2.4139380165       -4.4900094644       -2.5553937827
 C          2.3685037572       -2.5396478437       -1.7358008801
 H          3.0127608783       -2.2362457454       -2.5698636136
 H          1.3492080173       -2.2918784736       -2.0540984554
 H          1.7440411948       -3.4908050509        2.5466579850
 H          2.4001442736       -4.9958259879        1.8899481288
 H          4.0188702286       -3.8310303187        0.5631701726
 H          4.0160650753       -3.0426073796        2.1364785981
 O          3.4025088492       -0.9021670217        1.5459875542
 C          3.2030987245        0.4335829257        1.2718000764
 O          3.4740559864        1.2000465120        2.2190494049
 H          0.2525556033        1.1332014632       -1.0650515751
 C          0.0522906796        1.9006115973       -0.3310581878
 C          1.1095292915        2.6278429803        0.1993897568
 C          0.8302606836        3.6087571436        1.1424218840
 C         -0.4717920938        3.8437692344        1.5520284779
 C         -1.5188538491        3.1005117752        1.0366377082
 C         -1.2479304531        2.1246563240        0.0882712073
 N         -2.3115360729        1.3210012013       -0.4079186214
 S         -2.6655001965        0.0508524577        0.6591245401
 O         -2.8363241304        0.6056061621        1.9778364592
 O         -1.6780701974       -0.9999853034        0.5242532546
 C         -4.2382879327       -0.4969095012        0.0246204904
 C         -5.3494650884        0.2831739708        0.2807198399
 C         -6.5746001321       -0.1066685107       -0.2353777046
 C         -6.6667786808       -1.2625575140       -0.9968239514
 C         -5.5424463958       -2.0347654359       -1.2451918975
 C         -4.3133559644       -1.6494021075       -0.7322948387
 H         -3.4137427294       -2.2214910066       -0.8949198092
 H         -5.6169105924       -2.9338078007       -1.8356469409
 H         -7.6213278551       -1.5646460878       -1.3979300260
 H         -7.4515417273        0.4903168424       -0.0434970950
 H         -5.2294578874        1.1683595168        0.8827560900
 H         -2.0467939621        0.8906206941       -1.2866620480
 H         -2.5319303745        3.2488145439        1.3717098377
 H         -0.6705342029        4.6043976210        2.2916713718
 H          1.6451113754        4.1703334917        1.5759084337
 C          2.5229362104        2.2899754186       -0.2005189998
 H          3.1977646028        2.7838781353        0.5163626281
 C          2.8974250260        2.7780298187       -1.5926222151
 C          1.9017255157        3.2899973608       -2.5858174853
 C          2.8329114191        4.2441539037       -1.9047434776
 H          3.6339096696        4.6880836858       -2.4758590742
 H          2.4157708091        4.8917077120       -1.1481183442
 H          2.0670361469        3.0503536586       -3.6250409819
 H          0.8604668559        3.3077466727       -2.3046612323
 H          3.7411093051        2.2306337074       -1.9993113471
 O          1.9990644795        0.0860054330       -2.1217358550
