  62
        -98.94263160
 C         -1.9511439706       -1.5578711999       -0.0478591200
 C         -1.5794968609       -0.2771112898       -0.5294467600
 C         -2.6760423111        0.6983734000       -0.6549069798
 C         -3.9325083210        0.3316550098       -0.3479071397
 C         -5.1287992211        1.2367431497       -0.3925285795
 C         -5.3652308710        1.9085866896        0.9672298906
 C         -4.1112487710        2.5466624198        1.5650838304
 H         -4.4037839309        3.0184627497        2.5057555905
 H         -3.3930418908        1.7607231099        1.8103512703
 C         -3.4356159013        3.5855543699        0.6594262603
 H         -3.1750495313        4.4573041899        1.2634307903
 H         -4.1371386615        3.9207935598       -0.1054297495
 C         -2.1457606013        3.1051998801       -0.0090247099
 H         -1.6461680715        3.9779282602       -0.4368915399
 H         -1.4783878111        2.6790753302        0.7441180100
 C         -2.3149080713        2.0761968101       -1.1336451399
 H         -3.0463931415        2.4377019800       -1.8592011597
 H         -1.3486151814        1.9711819802       -1.6352930300
 H         -6.1409321511        2.6672742895        0.8478625507
 H         -5.7332765208        1.1545020395        1.6669833406
 H         -6.0044007010        0.6377136795       -0.6488693493
 H         -4.9796906513        1.9915243597       -1.1620505195
 O         -4.2523117907       -0.9118102602        0.0946314504
 C         -3.2713636805       -1.8701675301        0.2872792302
 O         -3.6936209503       -2.9466402302        0.7554872702
 O         -0.4070903110        0.0494296604       -0.8435879702
 C         -0.9209479504       -2.6491248597        0.1945674198
 C          0.2855122196       -2.0511888896        0.8740171097
 C          0.1381473297       -1.5208303896        2.1526902297
 C          1.2015836497       -0.9165050695        2.7953080795
 C          2.4366986096       -0.8276859093        2.1772443793
 C          2.5926637295       -1.3517139692        0.9015952793
 C          1.5248403795       -1.9668475194        0.2615588495
 H          1.6576148494       -2.3484147793       -0.7386002706
 N          3.8421591194       -1.2651923590        0.2585529591
 S          4.5836767391        0.2319643811        0.1535288790
 O          5.6083982590        0.0668986413       -0.8534661711
 O          5.0415598093        0.6275170711        1.4622865090
 C          3.3328237289        1.3603287109       -0.4270076707
 C          3.0552595987        1.3863546309       -1.7786398807
 C          2.0716291285        2.2417982008       -2.2441992005
 C          1.3822692785        3.0479602806       -1.3529004804
 C          1.6664531087        3.0036340507        0.0021694595
 C          2.6499864989        2.1503700708        0.4741027394
 H          2.9042503291        2.0914642108        1.5198078593
 H          1.1226456687        3.6286962306        0.6924491896
 H          0.6178144583        3.7159241405       -1.7179116103
 H          1.8419305783        2.2740245907       -3.2973729105
 H          3.6216031687        0.7522967610       -2.4421248208
 H          3.8523388193       -1.7105907390       -0.6480881309
 H          3.2758207396       -0.3527153292        2.6591430392
 H          1.0694286698       -0.5076238095        3.7859553796
 H         -0.8303937602       -1.5773522898        2.6318133598
 H         -1.4013291902       -3.3433330298        0.9034419399
 C         -0.5736589105       -3.4655673597       -1.0414737202
 C         -1.5974827406       -3.7194133298       -2.1061347201
 C         -0.4160699108       -2.8457977696       -2.3965766103
 H          0.3536626192       -3.2311869595       -3.0499131604
 H         -0.5692884910       -1.7816532796       -2.4809810102
 H         -1.6378113006       -4.7005401898       -2.5550565701
 H         -2.5653552007       -3.2539307799       -1.9900147199
 H          0.0860487097       -4.2950819096       -0.8039156004
