  62
        -98.93373832
 C         -2.1708148679       -0.7536539633        0.0963584076
 C         -3.0328300789       -0.1240759144        1.0279365629
 C         -3.8489881974        0.9937565006        0.5257532251
 C         -3.6983663332        1.3960513391       -0.7474601556
 C         -4.3904313528        2.5291083655       -1.4630864675
 C         -5.8964836665        2.7023550832       -1.2237643925
 C         -6.6714411308        1.3971461982       -0.9905701702
 H         -7.5325199140        1.3711631884       -1.6608987469
 H         -6.0429093796        0.5392289145       -1.2356491474
 C         -7.1892373278        1.2579688560        0.4431214769
 H         -7.5975246977        2.2193133915        0.7625038257
 H         -8.0090814004        0.5356961272        0.4519129141
 C         -6.1609005720        0.7860835036        1.4706669345
 H         -5.9173971548       -0.2656771190        1.2958518482
 H         -6.6214585736        0.8459263240        2.4597445475
 C         -4.8396292306        1.5717367297        1.4950354450
 H         -5.0073323598        2.6311767516        1.3167811271
 H         -4.3956622072        1.4514419138        2.4872534630
 H         -6.0570421073        3.3662777390       -0.3754635749
 H         -6.2978817423        3.2121485144       -2.1012017434
 H         -3.8772988991        3.4595919231       -1.2029287932
 H         -4.2066771171        2.3475587323       -2.5247842125
 O         -2.8077399797        0.8055041281       -1.5921514611
 C         -2.0270403922       -0.2764621092       -1.2065667204
 O         -1.2688318867       -0.6921271442       -2.1006639950
 H          0.2116988470        0.1352395119        1.1928355820
 C          0.7588551492       -0.5909859963        0.6026485722
 C          0.1060996782       -1.7432408006        0.1798108793
 C          0.8183714364       -2.6671662121       -0.5720217937
 C          2.1426107992       -2.4311445884       -0.8989900961
 C          2.7825492799       -1.2768191658       -0.4889261501
 C          2.0814306564       -0.3469126586        0.2682052494
 N          2.7167848408        0.8393067902        0.6748620169
 S          4.2200392784        0.7329337195        1.4134143833
 O          4.3770954327       -0.5200010020        2.1151852401
 O          4.3330682827        1.9345200253        2.2115349868
 C          5.3736519726        0.8262892654        0.0608338427
 C          5.3032928658        1.9201319131       -0.7793267223
 C          6.1994532001        2.0138332211       -1.8319967020
 C          7.1472203650        1.0194252713       -2.0237548103
 C          7.2072997378       -0.0705816598       -1.1691063361
 C          6.3131880866       -0.1706704654       -0.1144270909
 H          6.3192127974       -1.0017431004        0.5727437732
 H          7.9452565990       -0.8420494410       -1.3196423847
 H          7.8432406253        1.0951232053       -2.8442035377
 H          6.1556059352        2.8601429594       -2.4985188094
 H          4.5545138504        2.6722424011       -0.5940600501
 H          2.1140785154        1.4724135024        1.1798767874
 H          3.8109075105       -1.0873055658       -0.7496014403
 H          2.6822147525       -3.1551192702       -1.4903339110
 H          0.3323661466       -3.5631355626       -0.9209694503
 C         -1.3355375405       -1.9223326220        0.5860478673
 H         -1.3830192486       -1.8464079004        1.6861649154
 C         -1.9018172262       -3.2880025851        0.2268058895
 C         -3.3698880262       -3.4773075436       -0.0083856178
 C         -2.4055707857       -3.6129576802       -1.1463492233
 H         -2.2167761532       -4.6009736941       -1.5401761550
 H         -2.3685402194       -2.8319518674       -1.8891899074
 H         -3.8414081395       -4.3676229336        0.3799500044
 H         -3.9996237939       -2.5999511343        0.0262185011
 H         -1.3973258086       -4.0868958573        0.7618522563
 O         -3.1081688096       -0.4722626726        2.2372044703
