  62
        -98.94085344
 C          2.6847074855        0.2675088254       -0.2460922116
 C          2.2741623421        1.0722528015        0.8458600014
 C          1.7526224590        2.4035111613        0.4938941099
 C          1.6670528697        2.7811764277       -0.7929696695
 C          1.2019003604        4.1198195726       -1.3011629772
 C         -0.3217725579        4.2587052783       -1.4147176277
 C         -1.0586999473        4.4105213422       -0.0837684569
 H         -0.5856652121        5.1948148943        0.5084233986
 H         -2.0740010158        4.7399293526       -0.3131127651
 C         -1.1366487172        3.1165309018        0.7369647542
 H         -2.1516391790        2.9828190504        1.1207020568
 H         -0.9358883304        2.2575492411        0.0925086272
 C         -0.1967849389        3.0548099438        1.9409757513
 H         -0.5033850382        3.7940026035        2.6856485373
 H         -0.2993337436        2.0608576928        2.3851459319
 C          1.2834464386        3.2850409489        1.6123344877
 H          1.4538814073        4.3334135400        1.3648995934
 H          1.8709454706        3.0326866243        2.4991390901
 H         -0.7122691201        3.3866688487       -1.9448490429
 H         -0.5241041739        5.1427541447       -2.0242194071
 H          1.5931816119        4.9091309774       -0.6579168721
 H          1.6338926920        4.2363051047       -2.2976225734
 O          2.0497739487        1.9700092893       -1.8156335209
 C          2.5325527950        0.6983998633       -1.5668472224
 O          2.8219405147        0.0524818419       -2.5961430836
 H          0.6314735245       -1.0012858505        0.6931653917
 C          0.8028537644       -1.8583822096        0.0589948229
 C          2.0761457798       -2.1149757244       -0.4268180048
 C          2.2708218911       -3.2322741759       -1.2299153134
 C          1.2089461377       -4.0601928723       -1.5496045432
 C         -0.0683360221       -3.7720339003       -1.1039500115
 C         -0.2719056280       -2.6573992948       -0.2981313287
 N         -1.5526730841       -2.3108411032        0.1644276322
 S         -1.8837358285       -0.6509211176        0.2620443749
 O         -1.3009216668        0.0333880863       -0.8699501522
 O         -1.5104419613       -0.1923875205        1.5746757611
 C         -3.6618514515       -0.6595106409        0.1235593589
 C         -4.2454312098       -0.4211904560       -1.1061797919
 C         -5.6270901422       -0.4585435776       -1.2116136717
 C         -6.3970826119       -0.7352306785       -0.0919026092
 C         -5.7971093989       -0.9706511373        1.1363974375
 C         -4.4163763693       -0.9329310141        1.2489533809
 H         -3.9047978811       -1.0978868932        2.1828286800
 H         -6.3990686464       -1.1815890825        2.0053998711
 H         -7.4718265947       -0.7642205717       -0.1767015217
 H         -6.0956649506       -0.2714367121       -2.1643521856
 H         -3.6054518152       -0.2020294300       -1.9460857213
 H         -2.2915438067       -2.8178574776       -0.3040555363
 H         -0.9028831834       -4.3974545436       -1.3823845985
 H          1.3723370803       -4.9244033103       -2.1754070068
 H          3.2550074608       -3.4335914796       -1.6268056021
 C          3.2008397836       -1.1586863095       -0.1151697514
 H          3.9556450217       -1.2773807653       -0.9110295163
 C          3.8862487205       -1.4595548452        1.2078206640
 C          3.2320940808       -2.2392944420        2.3041919387
 C          4.3478277459       -2.8534446022        1.5164112438
 H          5.3072437356       -2.9825599715        1.9937327299
 H          4.0918357056       -3.6324993518        0.8146701190
 H          3.4159652631       -1.9233063271        3.3194505205
 H          2.2276257955       -2.5984950976        2.1394599366
 H          4.5383805030       -0.6504460435        1.5179872893
 O          2.3513155797        0.7374044275        2.0557991061
