  62
        -98.93928727
 C         -1.5827088760       -0.2834229201       -0.6542088672
 C         -2.8504280145       -0.7935730866       -1.0214357907
 C         -3.9372074090       -0.6304627793       -0.0411525328
 C         -3.6642312374       -0.0574315560        1.1438048161
 C         -4.6271588453        0.2406709291        2.2596614514
 C         -5.1663359704        1.6764888454        2.1424457812
 C         -6.4005882993        1.8311611841        1.2545408547
 H         -7.2626212870        1.3900368684        1.7593460822
 H         -6.5940714910        2.9013720991        1.1514275569
 C         -6.2842735741        1.2156510220       -0.1424108096
 H         -7.0288683642        1.6940602568       -0.7815642480
 H         -5.3032271017        1.4420710510       -0.5637102218
 C         -6.5210961877       -0.3019136008       -0.1549963965
 H         -7.2666206883       -0.5449014379       -0.9149396336
 H         -6.9463186724       -0.6037034311        0.8020400979
 C         -5.2823905499       -1.1569389853       -0.4615830421
 H         -5.4194342603       -2.1526317397       -0.0265527307
 H         -5.1972282601       -1.2997948790       -1.5434152530
 H         -5.4207102246        2.0375558028        3.1410543609
 H         -4.3576727010        2.3068080977        1.7637037837
 H         -5.4359467162       -0.4838654822        2.2758182988
 H         -4.0605186086        0.1564148791        3.1895349274
 O         -2.4225227489        0.3943936900        1.4703002550
 C         -1.3558363038        0.3040824343        0.5906241231
 O         -0.2935995091        0.7832495363        1.0288486183
 H          2.1270439789       -0.0937134601       -0.6822365572
 C          1.7952327851       -1.1148165479       -0.6331590040
 C          0.5330861649       -1.4554837726       -1.0900574728
 C          0.1349990186       -2.7889238629       -1.0211136585
 C          0.9823344318       -3.7509868486       -0.5075419341
 C          2.2373025779       -3.4019303289       -0.0366408861
 C          2.6413225167       -2.0749329346       -0.0941687462
 N          3.9139331450       -1.6785192393        0.3563820219
 S          3.9983526874       -0.4287789912        1.4817261242
 O          5.3237964462       -0.5613528883        2.0530481472
 O          2.9019148641       -0.4924256273        2.4191126895
 C          3.9443919866        1.0616396382        0.5116313670
 C          2.8815789808        1.9340830051        0.6398629061
 C          2.8711230293        3.0852867080       -0.1333004436
 C          3.9125850602        3.3409066308       -1.0121948398
 C          4.9729980765        2.4539162012       -1.1250940727
 C          4.9930008553        1.3026995733       -0.3546869292
 H          5.7988980538        0.5897179029       -0.4052729521
 H          5.7795856723        2.6557466973       -1.8113045553
 H          3.8944160680        4.2364242357       -1.6135528784
 H          2.0423537496        3.7706410095       -0.0484520266
 H          2.0703117950        1.6842770392        1.3067324231
 H          4.4989628793       -2.4466305773        0.6557768081
 H          2.8972840745       -4.1514958499        0.3742399272
 H          0.6632532686       -4.7817050824       -0.4650806517
 H         -0.8505436671       -3.0577599184       -1.3758597159
 C         -0.4327566565       -0.4328484539       -1.6368269258
 H         -0.8844625969       -0.8495800033       -2.5482486192
 C          0.2072030925        0.8983140612       -1.9671310425
 C          1.1054272556        1.0130574165       -3.1614296178
 C         -0.2474080707        1.6571875524       -3.1759030872
 H         -0.3085504948        2.7331758688       -3.1142909634
 H         -1.0200081990        1.2108707851       -3.7849006139
 H          1.9774932013        1.6450610080       -3.0880395959
 H          1.2510944689        0.1271615429       -3.7606112884
 H          0.4621140821        1.4756448665       -1.0869368943
 O         -3.0691707758       -1.3567171779       -2.1282439033
