  62
        -98.93913199
 C          2.3440836633        0.8052568552        0.6025926332
 C          3.4321346890        0.9840147959       -0.2871928499
 C          4.6504007765        0.2262628193        0.0309858076
 C          4.6903678576       -0.5662601663        1.1161297493
 C          5.8649782025       -1.3863024985        1.5760674332
 C          5.9859268046       -2.7485405215        0.8791720394
 C          6.4480396822       -2.6952708470       -0.5775973694
 H          7.3608710979       -2.1027966846       -0.6461139081
 H          6.6994037188       -3.7164285077       -0.8710230416
 C          5.3999765617       -2.1449438033       -1.5550011696
 H          4.4138130871       -2.1701110158       -1.0851826629
 H          5.3501549898       -2.7888093985       -2.4359872327
 C          5.6768506183       -0.7243941721       -2.0470295397
 H          4.8548720132       -0.4225206164       -2.7008120964
 H          6.5973384791       -0.7128375896       -2.6348327634
 C          5.7991303933        0.3181624585       -0.9281926035
 H          6.7448684881        0.1961803385       -0.4010624566
 H          5.7749387394        1.3120439132       -1.3813435711
 H          6.7080606282       -3.3408440093        1.4459077140
 H          5.0205754170       -3.2568442050        0.9373643370
 H          6.7857048784       -0.8199005211        1.4335509875
 H          5.7235445522       -1.5576557695        2.6453615288
 O          3.6308596978       -0.6995081446        1.9581983643
 C          2.4410893629       -0.0367101479        1.7155668398
 O          1.5527663711       -0.2662832544        2.5625239209
 O          3.4175158681        1.7320063393       -1.3001873861
 C          1.0004768875        1.4951308480        0.4315750237
 C          0.1326057148        0.7976635975       -0.5892291222
 C          0.5104966647        0.6990977350       -1.9245124704
 C         -0.3224872485        0.0866472625       -2.8425201234
 C         -1.5520484484       -0.4168279530       -2.4558018975
 C         -1.9354843866       -0.3289095109       -1.1228321323
 C         -1.0881976576        0.2671425175       -0.1992344506
 H         -1.3949784348        0.3177613410        0.8357396856
 N         -3.1686627273       -0.8449452934       -0.6931234419
 S         -3.9945705957       -0.0163405432        0.5248145782
 O         -3.9064544223        1.4087733615        0.2995857932
 O         -3.5347924707       -0.4896120124        1.8064921152
 C         -5.6594316296       -0.5853365410        0.2342200760
 C         -6.0489625724       -1.8030170499        0.7594380799
 C         -7.3328729101       -2.2603456100        0.5083755591
 C         -8.2002996307       -1.4978076462       -0.2598590093
 C         -7.7955883054       -0.2770979477       -0.7788052223
 C         -6.5125835767        0.1858938672       -0.5325043719
 H         -6.1568977877        1.1322938043       -0.9070179460
 H         -8.4732725237        0.3148401799       -1.3725864742
 H         -9.1992548544       -1.8558601499       -0.4524688437
 H         -7.6520071084       -3.2072980057        0.9128954953
 H         -5.3433394445       -2.3551522527        1.3583206579
 H         -3.7789784867       -1.0963901073       -1.4587711770
 H         -2.2075955708       -0.8803034874       -3.1775397733
 H         -0.0173009529        0.0138137336       -3.8755694842
 H          1.4623192028        1.1042866905       -2.2310748059
 H          0.4953788484        1.4051137235        1.4036833967
 C          1.1165304159        2.9697831407        0.0913160108
 C         -0.0871727821        3.8430392722        0.2725732696
 C          1.0876545261        3.9832884375        1.1928996583
 H          1.7115217036        4.8599243925        1.1032105767
 H          0.9881655393        3.6191378695        2.2055760264
 H         -0.2692982666        4.6240314620       -0.4497489205
 H         -0.9875096584        3.3828328388        0.6547405397
 H          1.7613701334        3.1669325931       -0.7546175057
