  62
        -98.93534591
 C          2.5821744521        1.3189875887        0.1740386588
 C          2.6337721081        0.2328781143       -0.7312288181
 C          3.8510941622       -0.5895878867       -0.6742264626
 C          4.8343263957       -0.2679231990        0.1855935733
 C          6.1637844866       -0.9599898550        0.3335269240
 C          6.1245163426       -2.4120837100        0.8477059738
 C          6.1116507595       -3.4747344179       -0.2580948320
 H          6.5553034814       -3.0491919002       -1.1590472502
 H          6.7537112018       -4.3042168315        0.0453049974
 C          4.7414958755       -4.0707500187       -0.5950196104
 H          4.8346253953       -4.6084496152       -1.5410566768
 H          4.4716148485       -4.8000469841        0.1721548976
 C          3.5879405638       -3.0733127368       -0.7039047323
 H          3.2831501506       -2.7525525070        0.2951465498
 H          2.7286408213       -3.5903650689       -1.1353788002
 C          3.9013165240       -1.8159871205       -1.5380307791
 H          3.1414199762       -1.6831756164       -2.3106676778
 H          4.8727768287       -1.9064689177       -2.0217177339
 H          5.2691146139       -2.5404085017        1.5104629729
 H          7.0235216419       -2.5578888084        1.4487208608
 H          6.6824518035       -0.9304639524       -0.6274130697
 H          6.7318473103       -0.3485409405        1.0376485300
 O          4.7484275661        0.7975943088        1.0297085830
 C          3.6218027670        1.6016073270        1.0590517429
 O          3.6655590405        2.5213470812        1.9016396759
 O          1.7177069690       -0.0338043262       -1.5516698462
 C          1.3613294725        2.2205984164        0.2029253225
 C          0.1238168004        1.4001397268        0.4753952255
 C          0.1155581051        0.5489466227        1.5778246491
 C         -0.9932693030       -0.2210981478        1.8684338246
 C         -2.1209746651       -0.1617274133        1.0674698770
 C         -2.1302291057        0.6937239688       -0.0244539959
 C         -1.0143172786        1.4726127329       -0.3105244038
 H         -1.0382821246        2.1302647737       -1.1653788465
 N         -3.2616386608        0.7538683155       -0.8503546189
 S         -4.7934796552        0.7843399080       -0.1766553337
 O         -5.6342462828        1.3864060532       -1.1881903160
 O         -4.7919076681        1.4239654929        1.1184739334
 C         -5.2291117010       -0.9343582986       -0.0107896677
 C         -5.6914807530       -1.4124728799        1.1995370643
 C         -6.0401912485       -2.7501562788        1.3032243808
 C         -5.9222299477       -3.5814523371        0.2000493545
 C         -5.4588814319       -3.0851106281       -1.0093853461
 C         -5.1099814005       -1.7487076566       -1.1199138930
 H         -4.7476756481       -1.3260992479       -2.0422021187
 H         -5.3677077207       -3.7346601149       -1.8650987620
 H         -6.1929266590       -4.6222445165        0.2829552046
 H         -6.4013837996       -3.1375070165        2.2423728128
 H         -5.7616810913       -0.7311508043        2.0326568820
 H         -3.1789169474        1.3928614457       -1.6269653366
 H         -2.9872539454       -0.7642099078        1.2862469877
 H         -0.9805544846       -0.8789773806        2.7244000723
 H          0.9976795771        0.4988153402        2.2024526976
 H          1.5076830822        2.9053351367        1.0511636271
 C          1.2908685383        3.0350087455       -1.0720828869
 C          0.6156342563        4.3728564683       -1.0778435610
 C          2.1085298399        4.2857728000       -1.1759266034
 H          2.5789059289        4.5181100467       -2.1195749835
 H          2.6976819536        4.5650095538       -0.3144419119
 H          0.0627986655        4.6701345766       -1.9565977046
 H          0.1877914959        4.7215210737       -0.1498194435
 H          1.2126192325        2.4154697144       -1.9583101782
