  62
        -98.94034186
 C         -1.4840778444       -1.2334925135        0.2898585210
 C         -1.5721820104        0.1817757182        0.3548026162
 C         -2.7703330560        0.7914349442       -0.2343131201
 C         -3.7021608658       -0.0043325685       -0.7893447617
 C         -4.9995579078        0.4734138559       -1.3733929530
 C         -6.1116904564        0.4964024110       -0.3154659382
 C         -5.7150229496        1.1975137534        0.9838308840
 H         -6.5859668001        1.1781696377        1.6426845527
 H         -4.9286668710        0.6194197537        1.4745782100
 C         -5.2406444363        2.6464543767        0.8045466954
 H         -5.5611104135        3.0232609879       -0.1674033106
 H         -5.7172943683        3.2676406501        1.5658714250
 C         -3.7302028981        2.8402265351        0.9507127331
 H         -3.5313520089        3.9128482414        1.0217985149
 H         -3.3911565208        2.3815621462        1.8829097520
 C         -2.8741314466        2.2900068479       -0.1967246585
 H         -1.8519933743        2.6514140785       -0.0531955019
 H         -3.2471482607        2.6723797774       -1.1489931265
 H         -6.9861773688        0.9890982842       -0.7445101322
 H         -6.3854268205       -0.5343449505       -0.0782699683
 H         -5.2879439606       -0.2079373897       -2.1755427416
 H         -4.8590041526        1.4695676443       -1.7885554561
 O         -3.5827451045       -1.3538705311       -0.8406248310
 C         -2.4677741569       -2.0085265341       -0.3240313898
 O         -2.4998851684       -3.2424527935       -0.4808027878
 O         -0.6848754963        0.8985190054        0.8878036217
 C         -0.2216841577       -1.8422083388        0.8740035422
 C          0.8685167534       -1.8081333481       -0.1658718397
 C          0.6738216687       -2.3704452525       -1.4246112406
 C          1.6739531818       -2.3144935353       -2.3768942187
 C          2.8753980147       -1.6841623508       -2.1010636686
 C          3.0757753069       -1.1129736969       -0.8500660784
 C          2.0745321750       -1.1831936128        0.1102244288
 H          2.2440013098       -0.7376278189        1.0784579189
 N          4.2837674294       -0.4758854257       -0.5416142828
 S          4.3260062377        0.8309440301        0.4956788996
 O          5.5757859522        1.4893304832        0.1772591453
 O          4.1886600756        0.3846446902        1.8596972490
 C          2.9639587768        1.8904640044        0.0442068115
 C          2.7772140391        2.1996270852       -1.2885940546
 C          1.7471358219        3.0565235476       -1.6375946288
 C          0.9328972506        3.5958068015       -0.6535886530
 C          1.1362448043        3.2796276287        0.6793288855
 C          2.1598795754        2.4161297182        1.0330639404
 H          2.3396124922        2.1339092305        2.0579607724
 H          0.4961339758        3.6888258597        1.4438096279
 H          0.1319354191        4.2643461560       -0.9292834784
 H          1.5807677938        3.3011084776       -2.6746479632
 H          3.4304015354        1.7751754913       -2.0337598919
 H          4.9326408854       -0.3795654836       -1.3081864753
 H          3.6533681379       -1.6359584158       -2.8475364431
 H          1.5148615632       -2.7591805202       -3.3476594658
 H         -0.2688018236       -2.8508507749       -1.6424023282
 H          0.0792897875       -1.1536188276        1.6803104260
 C         -0.4170846524       -3.2131085541        1.5024742752
 C          0.1846875964       -4.4699253449        0.9567738203
 C          0.7307354938       -3.8672005095        2.2140437805
 H          0.5445891395       -4.3640566436        3.1541863620
 H          1.6914756194       -3.3760746271        2.1572356181
 H         -0.4028196925       -5.3727611829        1.0244026838
 H          0.7829862139       -4.4073828288        0.0617231233
 H         -1.3942278229       -3.3141425432        1.9629057589
