  62
        -98.94513286
 C         -1.5319431114       -0.7701341436       -0.5223803023
 C         -2.8326324633       -1.3240511006       -0.5654522987
 C         -3.9352865817       -0.3569786606       -0.6147395897
 C         -3.6663933906        0.9614280881       -0.6374811776
 C         -4.6816486029        2.0692697548       -0.7192087311
 C         -5.2798816262        2.4706311922        0.6359711197
 C         -6.2607270479        1.4633933598        1.2373283699
 H         -6.7631460785        1.9618681112        2.0687528130
 H         -7.0235769814        1.2147428820        0.4988156968
 C         -5.6059776911        0.1759207402        1.7571794497
 H         -4.5317834498        0.3360861996        1.8756732964
 H         -6.0047128727       -0.0622512986        2.7459252390
 C         -5.8286821460       -1.0504395530        0.8719336888
 H         -6.8920219890       -1.2995220187        0.8515014995
 H         -5.2945334078       -1.8950070848        1.3150392057
 C         -5.3376485748       -0.8846942084       -0.5723882663
 H         -5.3376544100       -1.8679575004       -1.0493504784
 H         -6.0097467175       -0.2284161821       -1.1249377752
 H         -4.4632696269        2.6483870917        1.3394369589
 H         -5.8070946894        3.4166161697        0.4923063268
 H         -4.1628850679        2.9352117066       -1.1357369539
 H         -5.4827256620        1.7829441604       -1.4012371630
 O         -2.3993790365        1.4531345391       -0.6085749443
 C         -1.3016890643        0.6062420673       -0.5273152937
 O         -0.2048077845        1.1896937812       -0.4723754894
 O         -3.0610945726       -2.5640083111       -0.5615190914
 C         -0.3331474157       -1.6984628602       -0.4653961613
 C          0.5076927817       -1.3832400075        0.7460761055
 C         -0.1116521157       -1.2691950204        1.9886942502
 C          0.6199961449       -0.9543535249        3.1164868686
 C          1.9841582993       -0.7353174642        3.0300777610
 C          2.6143882935       -0.8628400909        1.7988648680
 C          1.8786068294       -1.1991262792        0.6699978830
 H          2.3970181804       -1.3158970140       -0.2657230482
 N          3.9960475777       -0.6681445217        1.6826925761
 S          4.6817006985       -0.1164547749        0.2656096631
 O          4.7433757482       -1.1832967638       -0.7025164821
 O          5.9599789949        0.4206930064        0.6832643497
 C          3.6447014627        1.2026389387       -0.3372213402
 C          3.1853856992        1.1638662799       -1.6369176775
 C          2.4040945305        2.2071461765       -2.1041611800
 C          2.0943181671        3.2650043407       -1.2660214116
 C          2.5650431698        3.2908055063        0.0366446919
 C          3.3496784719        2.2523082533        0.5083330059
 H          3.7331871827        2.2488106357        1.5159686081
 H          2.3156291071        4.1137848637        0.6872171889
 H          1.4750584926        4.0700395094       -1.6287519988
 H          2.0301561895        2.1864458812       -3.1157825173
 H          3.4428856760        0.3174261466       -2.2545382958
 H          4.4530735241       -0.2961141806        2.5013325096
 H          2.5554009844       -0.4744325519        3.9076902496
 H          0.1244090739       -0.8673543273        4.0718011594
 H         -1.1799297229       -1.4254486794        2.0552552437
 H         -0.7468484032       -2.7114789657       -0.3501805563
 C          0.4399364738       -1.6297671187       -1.7655965503
 C          1.2464429913       -2.8039881285       -2.2307029824
 C         -0.0224972100       -2.4380084014       -2.9390818477
 H          0.0420017016       -2.0010994763       -3.9242913737
 H         -0.8879069440       -3.0688588281       -2.7972681364
 H          2.1900072267       -2.6216370072       -2.7236029505
 H          1.2441387668       -3.6880070834       -1.6108852192
 H          0.8241783525       -0.6347732237       -1.9635923372
