  62
        -98.93161652
 C         -2.2570190515       -0.7035757662        0.6141669679
 C         -3.3301292308       -0.9960329605       -0.2624650380
 C         -4.5968445927       -0.2920109802        0.0033805931
 C         -4.6718502230        0.5735896610        1.0292943764
 C         -5.8613218097        1.4247724642        1.3722231218
 C         -5.9478018225        2.6251141798        0.4079315909
 C         -7.1753394806        2.6146988343       -0.5035333324
 H         -8.0513087995        2.9095090652        0.0781155350
 H         -7.0183433045        3.3753174484       -1.2712563608
 C         -7.4918822556        1.2786393127       -1.1823904276
 H         -8.2034501554        1.4898616708       -1.9834458448
 H         -8.0033374859        0.6212385101       -0.4777936032
 C         -6.2932206694        0.5259781237       -1.7741161556
 H         -6.6061539069        0.0799053811       -2.7202909389
 H         -5.4797712873        1.2151183607       -2.0018798479
 C         -5.7587241372       -0.6194820215       -0.8940648774
 H         -6.5752308227       -1.0326863696       -0.2956915675
 H         -5.3919397037       -1.4177952967       -1.5456801898
 H         -5.0406064819        2.6414458765       -0.1997877409
 H         -5.9565445988        3.5527360954        0.9822674224
 H         -6.7682876079        0.8264239586        1.3212051405
 H         -5.7273354478        1.7700354261        2.3975668501
 O         -3.6192162258        0.8343685334        1.8478464516
 C         -2.4009274644        0.2060409240        1.6667857814
 O         -1.5330327329        0.5320173482        2.5026841859
 H          1.5172434678       -0.1671292084        0.8495073695
 C          1.2073571057       -0.1601467787       -0.1857324033
 C         -0.0201771460       -0.6942955443       -0.5482842783
 C         -0.4001804621       -0.6527517496       -1.8857900031
 C          0.4366174607       -0.0905401826       -2.8321944310
 C          1.6733799313        0.4149720856       -2.4718061949
 C          2.0601570330        0.3809573261       -1.1374934093
 N          3.3035568576        0.8925715446       -0.7323035763
 S          4.1205037305        0.0805765046        0.5039784807
 O          3.9833544099       -1.3477267666        0.3304982571
 O          3.6927240766        0.6131460236        1.7734770782
 C          5.7995674387        0.5825539336        0.1737309043
 C          6.2477011443        1.7903925746        0.6741158771
 C          7.5433159135        2.1928232729        0.3908165124
 C          8.3635890840        1.3867835898       -0.3846953719
 C          7.9001687357        0.1765908644       -0.8787265832
 C          6.6054767189       -0.2318406464       -0.5996424706
 H          6.2053505023       -1.1685151791       -0.9532616039
 H          8.5412878742       -0.4493430164       -1.4782585110
 H          9.3716682504        1.7022830269       -0.6025476779
 H          7.9082353489        3.1311187947        0.7762963464
 H          5.5771424196        2.3779205830        1.2795578623
 H          3.9132737400        1.1078967717       -1.5093775443
 H          2.3323289424        0.8370650723       -3.2155096366
 H          0.1291864541       -0.0609380532       -3.8667189120
 H         -1.3544392856       -1.0664798798       -2.1726983746
 C         -0.8842787943       -1.3467707771        0.5047818046
 H         -0.3990760236       -1.1724610545        1.4755655159
 C         -0.9344304282       -2.8448661959        0.2622609062
 C          0.3052196034       -3.6513272263        0.5017011927
 C         -0.8664888227       -3.7828043227        1.4272453554
 H         -1.4511661412       -4.6898953738        1.3934600038
 H         -0.7873704051       -3.3499294311        2.4143533417
 H          0.5235204512       -4.4684825845       -0.1687951360
 H          1.1843468688       -3.1296720600        0.8532400572
 H         -1.5649655323       -3.1236230825       -0.5714678989
 O         -3.2620337738       -1.8028121371       -1.2278627839
