  62
        -98.94781471
 C         -1.0719501409       -1.1846874021       -0.0109126048
 C         -1.5770094281       -0.2296189194        0.9022585408
 C         -2.4810246016        0.7792912905        0.3401480157
 C         -2.7581259300        0.7673008008       -0.9764259191
 C         -3.6261390592        1.7571729207       -1.7053219465
 C         -5.1277179151        1.4461907241       -1.6384748513
 C         -5.7851520081        1.7013305748       -0.2815452023
 H         -6.8649458481        1.6506518804       -0.4347120449
 H         -5.5502409451        2.7137727273        0.0485550679
 C         -5.3927261255        0.6962234730        0.8102091699
 H         -4.9505934573       -0.1888675315        0.3470530923
 H         -6.2888262544        0.3667576405        1.3407013991
 C         -4.4221982742        1.2441457625        1.8561930354
 H         -4.1863057164        0.4405288346        2.5581659183
 H         -4.9024555394        2.0503668859        2.4149508464
 C         -3.1017344265        1.7704818855        1.2782510143
 H         -2.4044759413        1.9278743252        2.1050884955
 H         -3.2627262381        2.7231024044        0.7731338934
 H         -5.2806525707        0.4040769037       -1.9285358348
 H         -5.6227219847        2.0743225175       -2.3827775046
 H         -3.3122002269        1.7307720995       -2.7513557138
 H         -3.4406263227        2.7596341764       -1.3174252681
 O         -2.2486488363       -0.1648587545       -1.8245060867
 C         -1.3971968345       -1.1617245773       -1.3674793843
 O         -1.0090882125       -1.9490535960       -2.2518679562
 O         -1.2781500723       -0.2136736466        2.1267502137
 C         -0.1012707671       -2.2327012763        0.4930133917
 C          1.2520405957       -2.1047901266       -0.1668581070
 C          2.1324396344       -3.1772729296       -0.2630750555
 C          3.3786998402       -3.0112955188       -0.8408948537
 C          3.7829168511       -1.7782899359       -1.3204641161
 C          2.9108042044       -0.6995888017       -1.2290721620
 C          1.6620813790       -0.8721459055       -0.6530623690
 H          0.9857478324       -0.0331941441       -0.6173209752
 N          3.2712397017        0.5632202505       -1.7140003245
 S          2.5978738551        1.9600055999       -1.1047609665
 O          1.2359945112        2.1109454007       -1.5556556749
 O          3.5170607215        2.9983280919       -1.5214809295
 C          2.6549901895        1.7798531533        0.6686103099
 C          3.8911586992        1.6451812804        1.2703217336
 C          3.9518539209        1.4612587215        2.6417372521
 C          2.7814769571        1.4061273025        3.3840723826
 C          1.5488934832        1.5511223906        2.7671950786
 C          1.4843670861        1.7449118500        1.3969062033
 H          0.5395080386        1.8539457951        0.8865173101
 H          0.6318432120        1.4892289007        3.3312588777
 H          2.8278257550        1.2495002114        4.4502019413
 H          4.9085392128        1.3538106955        3.1269189268
 H          4.7796773694        1.6957046662        0.6624932529
 H          4.2338580850        0.6734660452       -1.9928948991
 H          4.7546613784       -1.6511818391       -1.7716934281
 H          4.0487477708       -3.8541653577       -0.9152190086
 H          1.8372180378       -4.1448047735        0.1089762641
 H          0.0289409793       -2.0152080148        1.5650146698
 C         -0.6913608200       -3.6227284858        0.3498122051
 C         -0.4443614288       -4.6712528579        1.3920921997
 C         -1.7957483100       -4.0354521546        1.2753042287
 H         -2.6129152801       -4.6179013431        0.8769816192
 H         -2.0947646952       -3.3261455680        2.0334207112
 H         -0.3342017434       -5.6970343091        1.0737243467
 H          0.1648733144       -4.4018093483        2.2416218372
 H         -0.7649320216       -3.9353559540       -0.6857859377
