  62
        -98.94218384
 C         -1.6155560828       -1.5086374548       -0.2067741485
 C         -2.7245552108       -0.9338854204        0.4504665566
 C         -3.2586250653        0.3126274437       -0.1216433852
 C         -2.6688930791        0.8471255054       -1.2078412592
 C         -2.9995432530        2.0895042391       -2.0082689833
 C         -3.9214485317        3.1642678120       -1.4386389743
 C         -3.3598191026        3.9109910615       -0.2293493084
 H         -2.5128724596        4.5194130544       -0.5569888100
 H         -4.1329740474        4.5868219520        0.1439931248
 C         -2.8697777418        3.0348487317        0.9214139138
 H         -2.0086369331        2.4449527641        0.5959538549
 H         -2.5101399411        3.6980852573        1.7141932568
 C         -3.9231149368        2.1099972386        1.5303113928
 H         -3.4905869739        1.6716410524        2.4343395992
 H         -4.7957633326        2.6952410002        1.8279821952
 C         -4.3896919250        0.9507712382        0.6320746668
 H         -5.1752774615        1.2685590038       -0.0491342131
 H         -4.8078606150        0.1721924946        1.2771551810
 H         -4.0732895641        3.8973112540       -2.2357416739
 H         -4.8957304149        2.7439542729       -1.2067934803
 H         -2.0323268608        2.5423866022       -2.2494362299
 H         -3.4231732466        1.7345989150       -2.9545972074
 O         -1.6127880031        0.2431334273       -1.8220218378
 C         -1.0260176141       -0.8993487653       -1.3135907233
 O         -0.0144250328       -1.2787045310       -1.9348454335
 O         -3.2447533108       -1.4361488775        1.4860946943
 C         -0.9454941119       -2.7342046369        0.3924479979
 C          0.4685251059       -2.3537484544        0.7553524807
 C          1.5920959924       -3.0889830698        0.4022925103
 C          2.8625090845       -2.6030450032        0.6646456550
 C          3.0390577409       -1.3645540802        1.2550376847
 C          1.9199802188       -0.6369923052        1.6357352175
 C          0.6536063965       -1.1470271877        1.4199377010
 H         -0.2105080139       -0.5620310419        1.7112266127
 N          2.0931634208        0.6884679472        2.1381608547
 S          1.8213445062        1.7956458893        0.8849572089
 O          2.0467374164        3.1045039042        1.4630169234
 O          0.5201178559        1.6078915159        0.2795533116
 C          3.1269340937        1.3848214113       -0.2461980800
 C          4.3765475001        1.9295926154       -0.0210053592
 C          5.4235692833        1.5702272663       -0.8535478560
 C          5.2040384306        0.6705874515       -1.8863862242
 C          3.9438006098        0.1325969631       -2.0965844356
 C          2.8890038658        0.4891496166       -1.2697616855
 H          1.8989908700        0.0801680909       -1.4086908095
 H          3.7681948513       -0.5699496279       -2.8953729786
 H          6.0195626378        0.3854506245       -2.5321957209
 H          6.4046667463        1.9873395247       -0.6932273585
 H          4.4944159873        2.6234204040        0.7950342291
 H          1.4456794449        0.9067730323        2.8851793669
 H          4.0213198368       -0.9519514681        1.4175946516
 H          3.7253154996       -3.1827358899        0.3756481770
 H          1.4723973680       -4.0344877747       -0.1010037640
 H         -1.5037765822       -2.9577258064        1.3135794571
 C         -1.0372013049       -3.9205136103       -0.5420430342
 C         -1.0194109612       -5.3156591134        0.0059130086
 C         -2.2888981503       -4.7440274390       -0.5477378540
 H         -2.6562160578       -5.1159993479       -1.4922536904
 H         -3.0703067082       -4.4619986796        0.1428493875
 H         -0.5171840655       -6.0854452983       -0.5600302551
 H         -0.9415584985       -5.4314238027        1.0763064012
 H         -0.5555082797       -3.7350593940       -1.4953964112
