  62
        -98.94186480
 C          1.1834111715        1.0097245081        0.4197543219
 C          2.0328337436        0.7072098256       -0.6677582750
 C          3.0119739128       -0.3799110578       -0.4643691440
 C          3.0112333876       -1.0447645516        0.7059658818
 C          3.9289949652       -2.1531964960        1.1486461602
 C          5.3268890157       -1.6461882668        1.5400300807
 C          5.9253500515       -0.6112273133        0.5908998517
 H          5.2479913082        0.2414937467        0.5181569134
 H          6.8556210825       -0.2505302887        1.0374719734
 C          6.2482415311       -1.1236714384       -0.8104928326
 H          6.9586877730       -1.9499192545       -0.7349856808
 H          6.7408162998       -0.3097233943       -1.3483901033
 C          5.0524741937       -1.5877064341       -1.6447032529
 H          4.7126861474       -2.5713427328       -1.3311938253
 H          5.3973243418       -1.6943930690       -2.6775016452
 C          3.8796910352       -0.6125319967       -1.6778417719
 H          4.2431776321        0.3755367313       -1.9827500714
 H          3.1905335173       -0.9236329823       -2.4729510452
 H          5.2532028058       -1.1870960932        2.5288874137
 H          5.9957693828       -2.5050722160        1.6159315732
 H          3.4653606602       -2.6115579790        2.0253069791
 H          3.9914310095       -2.9143556534        0.3763472420
 O          2.1426233836       -0.7443138605        1.7137296357
 C          1.2060860825        0.2624679113        1.5955693400
 O          0.4588840068        0.3957660562        2.5877674671
 O          1.9884402943        1.3174735193       -1.7688770338
 C          0.1408708829        2.1040359113        0.2940846679
 C         -0.8628213914        1.7583863237       -0.7808604788
 C         -1.4532545691        2.7068264474       -1.6071317882
 C         -2.3920837128        2.3241643149       -2.5497630108
 C         -2.7795725704        1.0021298981       -2.6750728166
 C         -2.1975633701        0.0468129999       -1.8497900393
 C         -1.2471999603        0.4323243295       -0.9188826039
 H         -0.7827342786       -0.3232878397       -0.3046547251
 N         -2.5537585090       -1.3076083725       -1.9351508509
 S         -2.6120021557       -2.2352580202       -0.5450879824
 O         -1.2808191094       -2.5559970959       -0.0932512001
 O         -3.4404805517       -3.3648943454       -0.9108409487
 C         -3.4747896104       -1.2208792321        0.6421581104
 C         -2.8093195423       -0.6363093972        1.6996011441
 C         -3.5182588377        0.1855770631        2.5627886031
 C         -4.8704644264        0.4071601730        2.3575185221
 C         -5.5274807572       -0.1948180820        1.2944863758
 C         -4.8246392083       -1.0136053546        0.4271310018
 H         -5.3009242688       -1.5097044879       -0.4028758386
 H         -6.5808533427       -0.0262124593        1.1394446545
 H         -5.4141024170        1.0499532543        3.0317219520
 H         -2.9965204465        0.6483146882        3.3855619427
 H         -1.7550936815       -0.8155049523        1.8446767834
 H         -3.3201520105       -1.5113522587       -2.5594028146
 H         -3.5148326242        0.7081132572       -3.4080269368
 H         -2.8359340905        3.0691292553       -3.1923599486
 H         -1.1728593390        3.7435375435       -1.5178821880
 H         -0.3972833622        2.1177895011        1.2544946952
 C          0.8021515752        3.4513564733        0.0869384038
 C          0.1797255027        4.6955563395        0.6436379334
 C          1.4239421198        4.1379936176        1.2647590257
 H          2.3560534835        4.6639323083        1.1228191663
 H          1.3431575510        3.6459963534        2.2235381362
 H          0.2599275559        5.6102523403        0.0757550897
 H         -0.7458828706        4.5921774593        1.1894414586
 H          1.3222056927        3.5157769998       -0.8615962570
