  62
        -98.94049510
 C          1.8706473501        0.9716409611       -0.0636891304
 C          2.2936534603       -0.2781696987        0.4526106199
 C          3.7248406003       -0.3789673284        0.7771247598
 C          4.5260807102        0.6917202017        0.6391011494
 C          5.9970883702        0.7467181320        0.9500339792
 C          6.8938394301        0.2403011518       -0.1879053507
 C          6.8786908203       -1.2736560682       -0.4029891503
 H          7.7051170503       -1.5098172883       -1.0762844903
 H          7.0768747805       -1.7761990179        0.5442445998
 C          5.5773071204       -1.8145396286       -1.0117972100
 H          5.0140508602       -0.9921177088       -1.4590492402
 H          5.8144013104       -2.5130113288       -1.8175339698
 C          4.6740819906       -2.5532378084       -0.0238107697
 H          3.7682062206       -2.8622735087       -0.5523133095
 H          5.1789063607       -3.4548185083        0.3303806005
 C          4.2524656106       -1.7187808782        1.1930316801
 H          5.0916389806       -1.6029781278        1.8785967100
 H          3.4468440107       -2.2467695281        1.7093877003
 H          6.6021181700        0.7426144615       -1.1132040408
 H          7.9175324701        0.5421312620        0.0451382091
 H          6.2362584201        1.7959843921        1.1360721889
 H          6.2016976204        0.1772493523        1.8570297794
 O          4.0652626599        1.8958352115        0.2070831491
 C          2.7420354899        2.0595179112       -0.1686456108
 O          2.4620844297        3.2100789111       -0.5600744111
 O          1.5352482004       -1.2635419087        0.6407689703
 C          0.4329827900        1.2196586108       -0.4875173704
 C         -0.5184947398        0.6697479510        0.5462373099
 C         -0.4768932198        1.1995878113        1.8339738097
 C         -1.3166665296        0.7249687115        2.8216222800
 C         -2.2331752495       -0.2737812987        2.5408746803
 C         -2.2854161396       -0.8067080891        1.2595948105
 C         -1.4320416597       -0.3345821692        0.2709540303
 H         -1.4725187898       -0.7930033995       -0.7024153896
 N         -3.2030316094       -1.8248421493        0.9453192309
 S         -4.1477418696       -1.6781953298       -0.4257713991
 O         -5.2322243894       -2.6140439199       -0.2263245587
 O         -3.3526046397       -1.8679256201       -1.6110468691
 C         -4.7622924598       -0.0056994699       -0.3491762295
 C         -5.8364596798        0.2592293702        0.4780371406
 C         -6.2748626500        1.5664124102        0.6110669602
 C         -5.6268765002        2.5840047001       -0.0728936301
 C         -4.5505844102        2.3022806700       -0.8998693102
 C         -4.1120206300        0.9952094200       -1.0416756798
 H         -3.2836754001        0.7352779799       -1.6800137098
 H         -4.0478579204        3.0939855299       -1.4322399704
 H         -5.9633663503        3.6029401100        0.0360655196
 H         -7.1152580599        1.7887153302        1.2487159402
 H         -6.3165625696       -0.5617037297        0.9856560808
 H         -3.7614664193       -2.1328388892        1.7281686410
 H         -2.8906219094       -0.6480310986        3.3109822405
 H         -1.2637197996        1.1386124618        3.8174300898
 H          0.2390406101        1.9808729415        2.0520072195
 H          0.3250725798        2.3170801408       -0.4913545407
 C          0.1196334799        0.7482085004       -1.8996816702
 C          1.1796033898        0.6975919602       -2.9581243903
 C          0.5883531400       -0.5724776397       -2.4283131799
 H         -0.0819704199       -1.1369140800       -3.0610359496
 H          1.1861594302       -1.1876399295       -1.7746037197
 H          0.9210691197        1.0103929999       -3.9586420603
 H          2.1890378098        0.9522310904       -2.6686711105
 H         -0.8619488002        1.0769100501       -2.2284167002
