  62
        -98.93595585
 C         -2.3388554403       -0.1128148317       -0.2605366765
 C         -3.3308066798        0.7568795972        0.2593530139
 C         -4.6118414409        0.1229252489        0.6092877569
 C         -4.7708412603       -1.2044240022        0.4703793020
 C         -6.0070637791       -1.9919020218        0.8106945632
 C         -7.0699541546       -1.9938670692       -0.2966601478
 C         -7.8232862244       -0.6755203938       -0.4787485107
 H         -8.6775807115       -0.8819507983       -1.1265587587
 H         -8.2164075655       -0.3470991980        0.4838088149
 C         -6.9886930800        0.4493640068       -1.1069536228
 H         -6.1033913718        0.0227323011       -1.5844734689
 H         -7.5696948018        0.9394752141       -1.8915504760
 C         -6.5463926475        1.5345827704       -0.1252845199
 H         -7.4231520491        2.0604407106        0.2590634914
 H         -5.9308539319        2.2570362134       -0.6673010930
 C         -5.7284593713        1.0143074435        1.0637094427
 H         -6.3755832819        0.4870080036        1.7640285098
 H         -5.2822140023        1.8715369752        1.5734928417
 H         -7.7963469855       -2.7713655320       -0.0491560449
 H         -6.5920234295       -2.2737818747       -1.2383937571
 H         -5.6824217982       -3.0210481351        0.9782960107
 H         -6.4427029618       -1.6097368474        1.7342653363
 O         -3.7798634913       -2.0119963935        0.0046264983
 C         -2.5610437415       -1.4866309417       -0.3881051163
 O         -1.7612921985       -2.3365446446       -0.8324109161
 O         -3.1787463622        1.9914495861        0.4365173654
 C         -0.9711654763        0.3642750434       -0.7182132560
 C          0.0236727660        0.4021975373        0.4129990084
 C         -0.2943190961        0.9554839063        1.6493362833
 C          0.6521764947        1.0085630064        2.6563116463
 C          1.9357638369        0.5371013946        2.4445040073
 C          2.2616835617       -0.0214902780        1.2143950228
 C          1.3011130346       -0.1000105134        0.2156246898
 H          1.5649489545       -0.5548556048       -0.7281775743
 N          3.5511074312       -0.5148228088        0.9611249432
 S          4.1788449045       -0.2786501299       -0.5907476510
 O          3.8107785039        1.0329939276       -1.0724438193
 O          3.7967408420       -1.3932740028       -1.4209608318
 C          5.9289178275       -0.3461679300       -0.2563532547
 C          6.6113556317        0.8299689545       -0.0074938000
 C          7.9658748007        0.7708238583        0.2800531131
 C          8.6106001696       -0.4565701907        0.3166756079
 C          7.9123401155       -1.6281314124        0.0641733579
 C          6.5578836348       -1.5763949939       -0.2248175092
 H          5.9758849356       -2.4582868154       -0.4366529321
 H          8.4177278417       -2.5800055717        0.0900862263
 H          9.6648423582       -0.5002705390        0.5399874675
 H          8.5121642489        1.6800211493        0.4729316759
 H          6.0709675155        1.7616728238       -0.0573569331
 H          4.2168997543       -0.2715393661        1.6818026063
 H          2.6777028365        0.5956343362        3.2263648578
 H          0.3920315881        1.4389175321        3.6117271362
 H         -1.2839518481        1.3560840796        1.8067843497
 H         -0.6209213360       -0.4007939261       -1.4310200854
 C         -1.0246103741        1.6855939849       -1.4755651857
 C         -0.5357748653        2.9836771657       -0.9156461684
 C          0.2355926295        2.3050449964       -2.0050805521
 H          0.2192022780        2.7340029738       -2.9960406196
 H          1.1777622067        1.8425637505       -1.7453813339
 H         -1.1004891470        3.8729459873       -1.1501893761
 H         -0.1193279934        2.9838889911        0.0791296064
 H         -1.8964498367        1.7410149320       -2.1205929422
