  62
        -98.94356769
 C         -1.4269061968       -1.3504041777        0.6181139730
 C         -2.4098435030       -1.2159520803       -0.3922938244
 C         -3.4120493837       -0.1599071820       -0.1720229722
 C         -3.3144727433        0.6370801469        0.9068901824
 C         -4.2717493346        1.7436729913        1.2456506401
 C         -3.8444738801        3.0890760517        0.6426104489
 C         -3.4434368882        3.0046732585       -0.8293881389
 H         -3.1530646204        4.0082294412       -1.1478612158
 H         -2.5632805576        2.3653351555       -0.9233479879
 C         -4.5476661153        2.4734450896       -1.7535164548
 H         -5.5154339832        2.5455813443       -1.2555706751
 H         -4.5944027308        3.1038927391       -2.6439988231
 C         -4.3328534259        1.0371674281       -2.2338392575
 H         -5.0445276309        0.8390322977       -3.0398064826
 H         -3.3288343184        0.9350445208       -2.6530150198
 C         -4.5273262068       -0.0549396578       -1.1745037331
 H         -4.5546559268       -1.0175919260       -1.6932617206
 H         -5.4855185576        0.0893030248       -0.6707063270
 H         -4.6689665415        3.7952499417        0.7567949870
 H         -2.9961462992        3.4734544569        1.2134368419
 H         -5.2617660817        1.4740065667        0.8817272579
 H         -4.3110990415        1.8386988925        2.3322583801
 O         -2.3055825612        0.5334068498        1.8095441819
 C         -1.3502417540       -0.4603196609        1.6940380692
 O         -0.4955692525       -0.4574168380        2.6020579247
 O         -2.4807612973       -1.9374293492       -1.4208797086
 C         -0.3672414209       -2.4428867953        0.6032107027
 C          0.7815740047       -2.0170583426       -0.2770724724
 C          0.6953261475       -2.0315392577       -1.6648382379
 C          1.7552785108       -1.5901578598       -2.4368020936
 C          2.9165215028       -1.1221080951       -1.8456453997
 C          3.0056033039       -1.0937391369       -0.4612070081
 C          1.9451726493       -1.5429087143        0.3123519784
 H          2.0111930471       -1.4996984263        1.3915661168
 N          4.1709163119       -0.5701184785        0.1476435893
 S          4.3796370501        1.0769866052       -0.0991846815
 O          4.7845623165        1.2963684762       -1.4637535778
 O          5.3053700514        1.5134268065        0.9209090268
 C          2.7569625145        1.7602864066        0.1815757742
 C          1.9068341554        1.9444771681       -0.8896842843
 C          0.6117649023        2.3715400016       -0.6471298755
 C          0.1927024224        2.6013645987        0.6536044532
 C          1.0582279518        2.4125677445        1.7190591426
 C          2.3526999002        1.9815090948        1.4827891628
 H          3.0550627186        1.8225873535        2.2856197267
 H          0.7202651480        2.5799237454        2.7289297936
 H         -0.8189834576        2.9233791652        0.8421312392
 H         -0.0677012261        2.5172981817       -1.4721878431
 H          2.2707826926        1.7546640213       -1.8861067328
 H          4.2057822678       -0.7551238909        1.1411239526
 H          3.7443451245       -0.7574477869       -2.4321037236
 H          1.6759815487       -1.6071956908       -3.5132447396
 H         -0.2187452156       -2.3648806328       -2.1307273537
 H          0.0100425731       -2.4985805460        1.6332887424
 C         -0.9096510108       -3.8056655310        0.2237104603
 C         -0.1080477490       -5.0220576549        0.5729498970
 C         -1.3836370228       -4.7293295863        1.3032445253
 H         -2.2454489724       -5.3497406669        1.1083847892
 H         -1.3188180747       -4.3831145118        2.3248284732
 H         -0.0912778965       -5.8456663996       -0.1240354047
 H          0.8229898877       -4.8737896658        1.0994151817
 H         -1.4580857915       -3.8141801028       -0.7079353481
