  62
        -98.94456541
 C          1.9697834104        0.7900075598        0.5492445696
 C          1.9944360000        0.0953016398       -0.6836493404
 C          2.1678505399       -1.3605435903       -0.5942805404
 C          2.2240382302       -1.9441145903        0.6164065696
 C          2.4384639302       -3.4109182403        0.8526741995
 C          3.9316518902       -3.7407920904        0.9913487092
 C          4.8007111199       -3.1490120404       -0.1183196710
 H          4.7835786500       -2.0596243904       -0.0400046810
 H          5.8278724900       -3.4697215405        0.0678146687
 C          4.3849899696       -3.5606514404       -1.5374134909
 H          5.2806064594       -3.8327993205       -2.0996992711
 H          3.7470627095       -4.4440006204       -1.4945888308
 C          3.6757266395       -2.4634987704       -2.3334199908
 H          4.2681707795       -1.5458120104       -2.3006847709
 H          3.6211551792       -2.7816993404       -3.3778064608
 C          2.2477673996       -2.1289086603       -1.8830214904
 H          1.6529806995       -3.0427552902       -1.8217393903
 H          1.7981338395       -1.4811654203       -2.6414936603
 H          4.2836937404       -3.3487936404        1.9483117891
 H          4.0446125101       -4.8262993804        1.0056762692
 H          1.9244769904       -3.6873943702        1.7750494397
 H          2.0042923599       -3.9711320702        0.0266982396
 O          2.1423685805       -1.2487763802        1.7808459996
 C          2.0175777606        0.1307256898        1.7758066996
 O          1.9649949909        0.6479895698        2.9118953496
 O          1.8878343398        0.6635142397       -1.8025666204
 C          1.7904468505        2.2975513198        0.5600145396
 C          0.4989049203        2.6502261599       -0.1381489801
 C          0.3825517402        3.6720286899       -1.0710874701
 C         -0.8298605100        3.9133396199       -1.6943610998
 C         -1.9409817999        3.1423981700       -1.4090339095
 C         -1.8394611598        2.1309443700       -0.4593571495
 C         -0.6312218097        1.9060760999        0.1772766102
 H         -0.5614771195        1.1151629999        0.9114088002
 N         -2.9571993198        1.3481040901       -0.1188728892
 S         -2.7088219298       -0.2606338599        0.3290832907
 O         -2.3305661294       -0.3030277299        1.7206352606
 O         -1.8181024200       -0.9171864400       -0.6014419395
 C         -4.3698387898       -0.8855075098        0.1473130711
 C         -5.2948583396       -0.5896215798        1.1310705613
 C         -6.5978493697       -1.0370230997        0.9820626416
 C         -6.9527548800       -1.7684730897       -0.1419318583
 C         -6.0132034502       -2.0599087297       -1.1192465985
 C         -4.7082719702       -1.6136781598       -0.9772523988
 H         -3.9417161103       -1.8198427899       -1.7070707790
 H         -6.2907809105       -2.6312672897       -1.9902715284
 H         -7.9674805100       -2.1157279696       -0.2554538480
 H         -7.3300721495       -0.8142201996        1.7412331718
 H         -4.9687995394       -0.0266241798        1.9900004412
 H         -3.7089447599        1.4295235301       -0.7904578191
 H         -2.8793149401        3.3186009201       -1.9124503293
 H         -0.9055144501        4.7040650999       -2.4253162098
 H          1.2436199101        4.2697230798       -1.3212901903
 H          1.6976969807        2.5859731098        1.6179519096
 C          3.0065413704        2.9799875997       -0.0308929307
 C          3.4013923206        4.3510625997        0.4267576592
 C          4.2203878206        3.1622558496        0.8281282990
 H          5.1937906105        3.0286541996        0.3806642488
 H          4.1582067808        2.8159458696        1.8498755191
 H          3.8175236604        5.0363210496       -0.2961654909
 H          2.7893197708        4.8208734897        1.1817176594
 H          3.1633236201        2.7183545997       -1.0710572907
