  62
        -98.94054851
 C          2.3607722126        0.7802623003       -0.1370152341
 C          3.5706522771        1.0973720810        0.5259240455
 C          4.7894498099        0.5330590161       -0.0638376308
 C          4.7057893487       -0.2151335575       -1.1792004870
 C          5.8611708410       -0.8379257963       -1.9152435185
 C          6.3120310873       -2.1886369490       -1.3423341487
 C          7.0558006232       -2.1135136688       -0.0083719680
 H          7.4996365411       -3.0955268481        0.1667239808
 H          7.8732270032       -1.3964382556       -0.0893467598
 C          6.1684723028       -1.7523230499        1.1910452235
 H          6.3900193247       -2.4238118090        2.0236587337
 H          5.1194756188       -1.9057343454        0.9269156644
 C          6.3458015086       -0.3227168735        1.7027936753
 H          7.3582199930       -0.1956188475        2.0923736608
 H          5.6456107320       -0.1640413957        2.5269907939
 C          6.0885441142        0.7619919121        0.6484033948
 H          6.0224658429        1.7265998928        1.1574985756
 H          6.9123404878        0.7976021968       -0.0639461699
 H          6.9752043595       -2.6490574234       -2.0782499057
 H          5.4357154110       -2.8321898647       -1.2358018061
 H          6.7039517031       -0.1462595499       -1.9264138749
 H          5.5254077490       -0.9945919482       -2.9425322097
 O          3.5238138634       -0.4826437276       -1.7963271500
 C          2.3229213002       -0.0134790058       -1.2832182263
 O          1.3184748282       -0.3631496645       -1.9317925203
 O          3.6281242300        1.8146556067        1.5607393466
 C          1.0558421115        1.3147609839        0.4238273723
 C          0.1345624811        0.1729194321        0.7751971639
 C          0.6092859562       -0.8377658943        1.6086386404
 C         -0.1972068797       -1.9023575234        1.9588492750
 C         -1.4996359950       -1.9771278248        1.4963762635
 C         -1.9827595723       -0.9757721978        0.6633760821
 C         -1.1677892026        0.0919250716        0.3108185313
 H         -1.5707991661        0.8535034813       -0.3350116572
 N         -3.2897622094       -1.0399258807        0.1547134543
 S         -4.1488347879        0.3946751467       -0.0692406008
 O         -3.7718689756        0.9824167646       -1.3297820984
 O         -4.0144899070        1.2397775427        1.0961966882
 C         -5.8089401881       -0.2480784355       -0.1791321772
 C         -6.6258604824       -0.2196345242        0.9353133906
 C         -7.9025952905       -0.7516748738        0.8442971748
 C         -8.3371108825       -1.3027098969       -0.3517667674
 C         -7.5059112975       -1.3234596214       -1.4621364027
 C         -6.2287489348       -0.7923313010       -1.3783892287
 H         -5.5504607971       -0.7782643131       -2.2157655433
 H         -7.8480819576       -1.7501881485       -2.3911383485
 H         -9.3308425995       -1.7163421424       -0.4201958101
 H         -8.5522265493       -0.7344064361        1.7045170181
 H         -6.2478830388        0.2261305432        1.8412964333
 H         -3.8536933967       -1.7467480968        0.6064693606
 H         -2.1319250390       -2.8079936567        1.7703764941
 H          0.1869025039       -2.6784496566        2.6038687561
 H          1.6249239823       -0.7748350885        1.9759436817
 H          1.3280163792        1.8317085894        1.3567496235
 C          0.4400076855        2.3210760498       -0.5242886255
 C         -0.4930199634        3.3714779788       -0.0029189730
 C          0.8808885671        3.7515354709       -0.4648664113
 H          0.9819350207        4.2986255700       -1.3900952059
 H          1.6167936224        4.0128548536        0.2814891015
 H         -1.3428129143        3.6499683029       -0.6086454308
 H         -0.6962880705        3.3765466420        1.0575982232
 H          0.2347837245        1.9014146939       -1.5035314359
