  62
        -98.94143476
 C          1.2365664013        1.1265669338       -0.0612033887
 C          1.6544656768        0.0596664399        0.7670228282
 C          2.7013265520       -0.8207110519        0.2254998360
 C          3.1587869615       -0.6090105796       -1.0201870409
 C          4.1784423523       -1.4095035611       -1.7913771652
 C          5.4402259989       -1.8613381691       -1.0423258266
 C          5.9242147510       -0.9026104452        0.0555261959
 H          6.9868146515       -0.7020540275       -0.0931262807
 H          5.3982243258        0.0503715397       -0.0222766756
 C          5.7465900488       -1.4711520161        1.4655285772
 H          6.0467294783       -2.5212453786        1.4593781181
 H          6.4197531580       -0.9424893816        2.1445827114
 C          4.3376123534       -1.3576732989        2.0462647325
 H          4.1141523917       -0.3116643549        2.2726093278
 H          4.3189401675       -1.9025099889        2.9931401267
 C          3.2077045902       -1.8902987079        1.1497238235
 H          3.5189331030       -2.7781830339        0.6042463912
 H          2.3638660498       -2.1591898397        1.7914732744
 H          5.2705488261       -2.8445768669       -0.6054206533
 H          6.2242900869       -1.9825524327       -1.7916905259
 H          3.6731313405       -2.2867487823       -2.2069530861
 H          4.4604290543       -0.7728342914       -2.6335829916
 O          2.6949796318        0.4053938153       -1.8040233313
 C          1.7270436087        1.2906910679       -1.3550694454
 O          1.3995374378        2.1582769483       -2.1871897843
 O          1.1638848437       -0.1562677461        1.9085285634
 C          0.1596277088        2.0696175299        0.4390271220
 C         -1.0900722928        1.9431072231       -0.3984845237
 C         -1.9072536530        3.0196594028       -0.7209120676
 C         -3.0572519110        2.8252119372       -1.4666158871
 C         -3.4328850452        1.5603422860       -1.8816477177
 C         -2.6248328073        0.4761953995       -1.5589177965
 C         -1.4642138704        0.6785251647       -0.8306827600
 H         -0.8299752273       -0.1674013259       -0.6161302507
 N         -2.9615541919       -0.8284899793       -1.9495533329
 S         -2.6158833994       -2.1041887574       -0.9243466485
 O         -1.2095783077       -2.4196299228       -0.9657400324
 O         -3.5084328703       -3.1582057272       -1.3591149052
 C         -3.1053744174       -1.5325557773        0.6935524644
 C         -2.1666497909       -1.2272349162        1.6569979891
 C         -2.5989302429       -0.7338334377        2.8786355999
 C         -3.9522707056       -0.5558206845        3.1161921156
 C         -4.8847336910       -0.8766965916        2.1407493269
 C         -4.4592700741       -1.3665546374        0.9176540669
 H         -5.1529095160       -1.6379877830        0.1385096255
 H         -5.9377381019       -0.7430939851        2.3289866643
 H         -4.2809346506       -0.1673909662        4.0672227728
 H         -1.8649686929       -0.4865263472        3.6291821022
 H         -1.1160841263       -1.3650192585        1.4534328479
 H         -3.8666765274       -0.9256756060       -2.3851546367
 H         -4.3333097886        1.4113073990       -2.4573092564
 H         -3.6766826562        3.6717175340       -1.7208944358
 H         -1.6391700680        4.0116442325       -0.3963553510
 H         -0.0857375691        1.7180697392        1.4534859816
 C          0.6848900537        3.4873883673        0.5291741093
 C          0.1746245562        4.4202796784        1.5855870453
 C          1.5605761163        3.8605339867        1.6868018920
 H          2.4000855585        4.5156341104        1.5086987449
 H          1.7525203586        3.0982379376        2.4279554074
 H          0.0638325776        5.4655877604        1.3394733635
 H         -0.5725255890        4.0438340826        2.2676539480
 H          0.9375222657        3.8979531231       -0.4418718481
