  62
        -98.93492410
 C         -2.0046119678       -0.9107914573        0.7114175325
 C         -1.9372045400       -0.2113397843       -0.5172481445
 C         -2.1313555974        1.2497442481       -0.4562531126
 C         -2.2953503644        1.8503324999        0.7356065970
 C         -2.4443936368        3.3117520086        1.1058306027
 C         -2.7857997020        4.3562269374        0.0459809336
 C         -4.1794401629        4.2178395804       -0.5651521836
 H         -4.2760824608        4.9581740460       -1.3621567827
 H         -4.9207509128        4.4545151016        0.2020771867
 C         -4.5179984101        2.8385905745       -1.1249160929
 H         -5.5288684355        2.8846361667       -1.5387720616
 H         -4.5354206192        2.1080702953       -0.3135190691
 C         -3.5872530463        2.3339396414       -2.2262126054
 H         -3.5191372739        3.0797504715       -3.0203223338
 H         -4.0389591020        1.4334292169       -2.6505239247
 C         -2.1620691000        1.9660193291       -1.7751772706
 H         -1.5119583139        2.8375626629       -1.7473811177
 H         -1.7394292663        1.2716653116       -2.5073088844
 H         -2.0275139760        4.3620744548       -0.7314998389
 H         -2.7378067016        5.3288149948        0.5434924143
 H         -3.2012558013        3.3421294365        1.8964165711
 H         -1.4948127506        3.5921944185        1.5762197758
 O         -2.2954171484        1.1398013352        1.9033232874
 C         -2.1428338049       -0.2343131221        1.9228073037
 O         -2.1492564433       -0.7317241973        3.0684769567
 H          0.6048220299       -1.2860084238        1.0651538871
 C          0.6226272197       -2.0268487833        0.2770342845
 C         -0.5323879487       -2.7429957926       -0.0139389406
 C         -0.4886770051       -3.6934638317       -1.0241899729
 C          0.6790458633       -3.8947361581       -1.7404420895
 C          1.8125219181       -3.1487415634       -1.4776744409
 C          1.7811058133       -2.2029000626       -0.4580366480
 N          2.9181993356       -1.4346154088       -0.1475997172
 S          2.6870109687        0.1443406346        0.4048170932
 O          2.4221930268        0.1042974857        1.8228537953
 O          1.7153490651        0.8370872692       -0.4107277942
 C          4.3178475646        0.8109284295        0.1245316211
 C          5.3066822340        0.5608121815        1.0572177341
 C          6.5840179805        1.0460683755        0.8259374092
 C          6.8503257454        1.7684308145       -0.3278631394
 C          5.8475448780        2.0130260179       -1.2540116984
 C          4.5680652113        1.5292492948       -1.0293762305
 H          3.7543742560        1.7006519578       -1.7159729711
 H          6.0561800430        2.5775870572       -2.1484200006
 H          7.8450117563        2.1456423083       -0.5051216490
 H          7.3651428810        0.8599989986        1.5451606775
 H          5.0484243805        0.0030816337        1.9422635957
 H          3.6218896491       -1.4701505345       -0.8729823161
 H          2.7126474999       -3.2895129678       -2.0565744975
 H          0.6991786203       -4.6298913928       -2.5307564064
 H         -1.3746742589       -4.2541590463       -1.2727328311
 C         -1.7643681904       -2.4097880969        0.7919778052
 H         -1.5287143879       -2.5979749402        1.8535696444
 C         -2.9718359527       -3.2713493088        0.4567764988
 C         -4.3645569061       -2.7448204384        0.6309618286
 C         -3.8331662624       -3.0179252816       -0.7423373385
 H         -4.2234597535       -3.8699063147       -1.2797817467
 H         -3.5739141720       -2.1824752420       -1.3722380542
 H         -4.4719990763       -1.7160049059        0.9438714923
 H         -5.1156960348       -3.4056751096        1.0369831696
 H         -2.8156283335       -4.3093571227        0.7345253059
 O         -1.7272474520       -0.7669626164       -1.6265195258
