  62
        -98.94442744
 C          2.6135561757        1.1089197257        0.1947451252
 C          2.6088553862        0.1943605192       -0.8864197950
 C          3.2242760398       -1.1129541808       -0.6227342293
 C          3.7646987461       -1.3769357580        0.5797641160
 C          4.4304780171       -2.6605778138        0.9940479366
 C          3.4506009178       -3.7402653507        1.4736073166
 C          2.6163950431       -4.3976096729        0.3732411073
 H          3.2750790712       -4.7471707542       -0.4224822664
 H          2.1405248011       -5.2762669410        0.8129359885
 C          1.5253072090       -3.4956567649       -0.2209468196
 H          1.3293634923       -2.6558162638        0.4507179213
 H          0.5871736682       -4.0507519534       -0.2987358148
 C          1.8395364743       -2.9502931205       -1.6139340925
 H          1.8874010309       -3.7757006498       -2.3283168620
 H          1.0129717513       -2.2981173711       -1.9109641820
 C          3.1459574369       -2.1498482458       -1.7025395812
 H          4.0012693464       -2.8227699152       -1.6478737931
 H          3.1664031807       -1.6329126716       -2.6651413298
 H          2.7838640974       -3.3011437036        2.2193921974
 H          4.0378650403       -4.5177965137        1.9674427405
 H          5.0268973359       -3.0490024428        0.1682872803
 H          5.0989202970       -2.4109210239        1.8207282124
 O          3.7791470429       -0.4625694743        1.5844797259
 C          3.1828659792        0.7759266913        1.4289719596
 O          3.2349019909        1.4955642535        2.4462602285
 H          0.1803583085        1.2780646801       -1.5120953905
 C         -0.2934891135        1.6450616563       -0.6136159722
 C          0.4679796810        2.3135317456        0.3347931687
 C         -0.1562112504        2.7508502704        1.4971123664
 C         -1.5046762844        2.5168158572        1.7044572057
 C         -2.2533898049        1.8282934603        0.7662102408
 C         -1.6358847244        1.3834738856       -0.3947119664
 N         -2.3794161365        0.6257011237       -1.3303135214
 S         -2.7849195341       -0.9127465312       -0.7670630468
 O         -1.8360395660       -1.3807216246        0.2176346908
 O         -2.9500811026       -1.7332604968       -1.9474571474
 C         -4.3751960274       -0.6559595997       -0.0086537463
 C         -4.5333583276       -0.8598871200        1.3478134099
 C         -5.7788810601       -0.6428232406        1.9167804759
 C         -6.8373710808       -0.2274452152        1.1233439796
 C         -6.6621745054       -0.0289606647       -0.2383197772
 C         -5.4201853378       -0.2453128690       -0.8132801855
 H         -5.2402490340       -0.1089594714       -1.8665209604
 H         -7.4877357444        0.2936270506       -0.8519469993
 H         -7.8047108266       -0.0577571012        1.5691755003
 H         -5.9166755063       -0.7969080911        2.9749774517
 H         -3.6792948951       -1.1771980811        1.9247443202
 H         -1.8915341263        0.5266709012       -2.2110734972
 H         -3.2998179305        1.6260353507        0.9285359910
 H         -1.9746141414        2.8632483520        2.6122744472
 H          0.4311336873        3.2545827982        2.2512489820
 C          1.9554803245        2.4815188520        0.1365823954
 H          2.3498489178        3.0374014439        0.9974223665
 C          2.2798526362        3.2566914056       -1.1242226387
 C          2.1154750018        4.7457512759       -1.1197704226
 C          3.4872281523        4.1428525432       -1.1458438409
 H          4.0636093266        4.2040429704       -2.0566651241
 H          4.0851090778        4.1939982258       -0.2473658509
 H          1.7839761099        5.2089509800       -0.2027891201
 H          1.7474417736        5.2252246079       -2.0137075420
 H          2.0414042832        2.7244742611       -2.0351700248
 O          2.1246878686        0.4285392447       -2.0274090302
