  62
        -98.94515197
 C         -1.5275256789       -0.8162917212        0.0526419611
 C         -2.8060822195       -1.4173671337        0.1199712136
 C         -3.8981585825       -0.5429828061        0.5631148859
 C         -3.6366872086        0.7335603045        0.8992188556
 C         -4.6394318828        1.7402265047        1.3949884295
 C         -5.4144209272        2.4525433356        0.2780462006
 C         -6.4611224178        1.5959487800       -0.4354000428
 H         -7.1168690124        1.1344815409        0.3036566070
 H         -7.0731836040        2.2716321567       -1.0362643293
 C         -5.8749684869        0.5139520433       -1.3531951271
 H         -6.4019371904        0.5230186092       -2.3100213861
 H         -4.8273700455        0.7416171827       -1.5629217332
 C         -5.9693805656       -0.9073182497       -0.7981697140
 H         -7.0187229447       -1.1969031452       -0.7073469353
 H         -5.4938672416       -1.5857108645       -1.5112315434
 C         -5.2898266280       -1.0997429384        0.5640092189
 H         -5.8860027571       -0.6371715938        1.3504261334
 H         -5.2188170257       -2.1719856415        0.7632622890
 H         -4.6996093749        2.8375176174       -0.4526906670
 H         -5.9228563823        3.3080939131        0.7285990606
 H         -5.3414719657        1.2552931959        2.0738774042
 H         -4.0757209612        2.4895189383        1.9547518117
 O         -2.3870237772        1.2659830097        0.8454759593
 C         -1.3041657310        0.5146944582        0.4077147205
 O         -0.2245284251        1.1315758137        0.3881272428
 H          2.3559712818       -1.1453516140       -0.7304427004
 C          2.0676659541       -1.3266956776        0.2903100291
 C          0.7517863984       -1.6162286373        0.6124427723
 C          0.4363303071       -1.8917417780        1.9410283669
 C          1.4087058843       -1.8523283935        2.9205049733
 C          2.7155496979       -1.5267376403        2.6003302707
 C          3.0439433051       -1.2663021444        1.2761195830
 N          4.3609191468       -0.9542762529        0.9171461837
 S          4.6973954532        0.0137755611       -0.3988770894
 O          4.5363251215       -0.7373143258       -1.6192403728
 O          6.0359697017        0.5016103900       -0.1396067310
 C          3.5442775703        1.3730984127       -0.3561732986
 C          2.7932620933        1.6599048919       -1.4765864353
 C          1.9205245078        2.7342622338       -1.4427243557
 C          1.8119686470        3.4978981921       -0.2926879186
 C          2.5748771860        3.1986238386        0.8242467312
 C          3.4519403675        2.1278572243        0.7951759933
 H          4.0611171371        1.8752423799        1.6481125286
 H          2.4817808624        3.7924369048        1.7194851877
 H          1.1221141239        4.3264535939       -0.2647426247
 H          1.3199398175        2.9653182068       -2.3085159835
 H          2.9019400524        1.0350919700       -2.3495385011
 H          4.9941906930       -0.7927783436        1.6854947336
 H          3.4741122931       -1.4803500345        3.3665029989
 H          1.1472262897       -2.0660356801        3.9460310622
 H         -0.5873952144       -2.1305869550        2.1956904672
 C         -0.3454091335       -1.6407313560       -0.4216209774
 H         -0.7186986204       -2.6718990119       -0.5110038595
 C          0.1065143873       -1.1627095263       -1.7856846650
 C          0.7888729172       -2.1038322381       -2.7313746221
 C         -0.6109951996       -1.6460836920       -3.0086430204
 H         -0.7779455907       -0.9514393917       -3.8181942258
 H         -1.4170211508       -2.3509080493       -2.8650394421
 H          1.5923241092       -1.7271550324       -3.3470789944
 H          0.9336908147       -3.1223989137       -2.4039626892
 H          0.4308252246       -0.1274943803       -1.7717299442
 O         -3.0223923991       -2.6261202453       -0.1661146166
