  62
        -98.93953658
 C         -2.0925753855       -0.3107885909       -0.3360015372
 C         -2.8675287387        0.7733520217        0.1471036129
 C         -4.2150247517        0.4280079104        0.6255301104
 C         -4.6238138987       -0.8524972277        0.6304366597
 C         -5.9544082075       -1.3583916192        1.1177975919
 C         -7.0787157574       -1.2603506125        0.0775714317
 C         -7.5900367543        0.1546032577       -0.1965336220
 H         -8.5127118971        0.0556198984       -0.7718500700
 H         -7.8455687161        0.6363353113        0.7477445876
 C         -6.6122442755        1.0405539553       -0.9810673176
 H         -5.8572856106        0.4129856210       -1.4605467825
 H         -7.1500152593        1.5586184889       -1.7784175121
 C         -5.9091152029        2.1068706686       -0.1410843183
 H         -5.2150514493        2.6496779404       -0.7877414739
 H         -6.6454772475        2.8200075762        0.2359033711
 C         -5.1136917283        1.5514639244        1.0474009012
 H         -5.7925300043        1.2215938896        1.8333211451
 H         -4.4823725359        2.3517312501        1.4408411133
 H         -6.7310612082       -1.7098812545       -0.8555722229
 H         -7.9144887256       -1.8610576888        0.4438300166
 H         -6.2439913875       -0.8190542824        2.0201311604
 H         -5.8114743824       -2.4108484612        1.3721770826
 O         -3.8346723882       -1.8712279284        0.1945380575
 C         -2.5714542773       -1.6236115361       -0.3141851644
 O         -1.9743921308       -2.6444804126       -0.7138688874
 O         -2.4759842380        1.9667029501        0.1920039784
 C         -0.6945704833       -0.1419653435       -0.9064499088
 C          0.3500747463       -0.2115041043        0.1787180555
 C          0.2246095864        0.5268489346        1.3522594031
 C          1.1899902127        0.4473317455        2.3385672804
 C          2.3090313469       -0.3491168252        2.1652657548
 C          2.4485527028       -1.0820473644        0.9938183179
 C          1.4663155572       -1.0184397460        0.0144225519
 H          1.5871562168       -1.6053619867       -0.8834190129
 N          3.5864991666       -1.8851191739        0.7675676612
 S          4.5864187485       -1.4283811743       -0.4974289052
 O          3.8524654246       -1.4707976722       -1.7347718203
 O          5.7460638973       -2.2848914408       -0.3985793039
 C          5.0375729239        0.2523996698       -0.1029580265
 C          4.1746595582        1.2731425097       -0.4485520719
 C          4.4854099000        2.5698031670       -0.0707912270
 C          5.6466619642        2.8215150994        0.6437108686
 C          6.5041708384        1.7854381453        0.9822442244
 C          6.1962267542        0.4862676710        0.6117459686
 H          6.8354692149       -0.3486620587        0.8497201124
 H          7.4079100842        1.9853782394        1.5350732495
 H          5.8846141283        3.8319747166        0.9363648233
 H          3.8170792225        3.3736417335       -0.3351902362
 H          3.2836910050        1.0419671413       -1.0084790647
 H          4.1466267996       -2.0332206442        1.5960808888
 H          3.0666634317       -0.4066408123        2.9323846972
 H          1.0761846827        1.0199451768        3.2463373106
 H         -0.6335014280        1.1691300584        1.4764955561
 H         -0.5423616101       -1.0155220623       -1.5605249099
 C         -0.5517811465        1.1046784888       -1.7723632229
 C          0.3758297390        2.2307202261       -1.4380811699
 C          0.7019896477        1.3071374120       -2.5710450561
 H          0.6165693386        1.6753807367       -3.5824361251
 H          1.4971181952        0.5865598748       -2.4377726136
 H          0.0457340693        3.2324930800       -1.6664881383
 H          0.9562795572        2.1597441294       -0.5314833795
 H         -1.4838631138        1.3752774034       -2.2564403387
