  62
        -98.94878333
 C          1.8134900456        1.3354883151       -0.2473058214
 C          2.8859448775        0.6500224097        0.3676630167
 C          3.2615896799       -0.6286434326       -0.2429302056
 C          2.5984852128       -1.0707745101       -1.3273958436
 C          2.8531718614       -2.3637087645       -2.0526141581
 C          2.1315706298       -3.5612682482       -1.4187473772
 C          2.7477386198       -4.0698277462       -0.1147558372
 H          2.2993280486       -5.0435378377        0.0927644513
 H          3.8191826715       -4.2239327980       -0.2514163031
 C          2.5037770568       -3.1526304951        1.0918943939
 H          1.6741891390       -2.4768916077        0.8664191985
 H          2.1920459887       -3.7559209492        1.9487978410
 C          3.7229159079       -2.3392319235        1.5295010654
 H          4.5016322204       -3.0157196110        1.8899250184
 H          3.4241467425       -1.6969345859        2.3624672974
 C          4.3203401900       -1.4463778659        0.4339154127
 H          5.0257991893       -0.7558126512        0.9032910971
 H          4.8564197048       -2.0539207998       -0.2946140799
 H          2.1417356695       -4.3764554007       -2.1463068817
 H          1.0898253957       -3.2828613493       -1.2373187877
 H          3.9246073653       -2.5608943345       -2.0997210548
 H          2.4758410753       -2.2317970625       -3.0688879607
 O          1.5964267311       -0.3658145200       -1.9104663981
 C          1.1356613830        0.8127190594       -1.3496874580
 O          0.1470616014        1.3048979785       -1.9275127238
 O          3.4894163197        1.0801369177        1.3898966108
 C          1.2796144184        2.6061831598        0.3937589985
 C         -0.1565545396        2.3577524943        0.7830106706
 C         -1.2088178256        3.2098817537        0.4759757564
 C         -2.5151580883        2.8457317926        0.7582897649
 C         -2.8010317645        1.6163455760        1.3242625158
 C         -1.7518686534        0.7720121206        1.6604559234
 C         -0.4460954903        1.1587539219        1.4239755447
 H          0.3618986014        0.4839081581        1.6801892722
 N         -2.0459385952       -0.5403182811        2.1399346980
 S         -1.9216769071       -1.6424033221        0.8597852425
 O         -2.2605494613       -2.9338390457        1.4209059794
 O         -0.6256668801       -1.5723982639        0.2197614714
 C         -3.2085961448       -1.0817181674       -0.2269156910
 C         -4.4991334815       -1.5093148324        0.0191507224
 C         -5.5256501764       -1.0341922182       -0.7802181128
 C         -5.2444457413       -0.1385237790       -1.8015029898
 C         -3.9435558788        0.2808363154       -2.0330609331
 C         -2.9091883360       -0.1917896347       -1.2392996721
 H         -1.8878663962        0.1233401147       -1.3952798350
 H         -3.7198389618        0.9794197488       -2.8232584510
 H         -6.0434478196        0.2360399136       -2.4217933244
 H         -6.5383111546       -1.3589471701       -0.6034049853
 H         -4.6642740959       -2.2063677353        0.8241692710
 H         -1.4064203021       -0.8399576686        2.8652282000
 H         -3.8155764278        1.2993014953        1.5023594826
 H         -3.3220535919        3.5153642426        0.5043161165
 H         -1.0068196808        4.1518537409       -0.0072851693
 H          1.8778732578        2.7527157240        1.3053436955
 C          1.4665792362        3.7998940151       -0.5169300824
 C          1.6021023348        5.1762668215        0.0611643819
 C          2.7939322780        4.4945795651       -0.5386006310
 H          3.1733625223        4.8506229799       -1.4844712000
 H          3.5598908200        4.1197155391        0.1245724182
 H          1.1655597418        6.0056020172       -0.4743077185
 H          1.5627586665        5.2734137735        1.1355186385
 H          0.9453619647        3.6865346058       -1.4607504850
