  62
        -98.94264123
 C         -1.9538872838       -1.5563215697       -0.0445030680
 C         -1.5767531784       -0.2782000588       -0.5289486272
 C         -2.6689844877        0.7021836643       -0.6553506595
 C         -3.9270972945        0.3414100743       -0.3480767865
 C         -5.1202221571        1.2504772762       -0.3966261029
 C         -5.3563881668        1.9269487391        0.9608732386
 C         -4.1006671560        2.5612405645        1.5589735880
 H         -3.3860501483        1.7728667170        1.8069015825
 H         -4.3924212559        3.0363899400        2.4981731202
 C         -3.4197484026        3.5951822953        0.6516630049
 H         -3.1568607920        4.4675572050        1.2537584142
 H         -4.1187218403        3.9309632929       -0.1152731961
 C         -2.1307350193        3.1083190820       -0.0135863318
 H         -1.4659819365        2.6813788594        0.7413877809
 H         -1.6273805909        3.9783307347       -0.4423810331
 C         -2.3019582007        2.0776870322       -1.1364196847
 H         -1.3353166690        1.9682017778       -1.6365167734
 H         -3.0310307893        2.4405776324       -1.8637323677
 H         -5.7287608209        1.1763112461        1.6620638820
 H         -6.1287283755        2.6885435698        0.8381519011
 H         -4.9676862587        2.0024084671       -1.1682758885
 H         -5.9974499561        0.6534837802       -0.6522370261
 O         -4.2519819097       -0.8993501910        0.0982034018
 C         -3.2750761638       -1.8612256612        0.2936488469
 O         -3.7017944464       -2.9339101502        0.7664599407
 H          1.6370099398       -2.3415027451       -0.7604906932
 C          1.5157851001       -1.9718457727        0.2456183744
 C          0.2831727065       -2.0632731503        0.8705193390
 C          0.1491201103       -1.5467440776        2.1561792302
 C          1.2196030272       -0.9497239012        2.7940912431
 C          2.4482414710       -0.8546806675        2.1641925198
 C          2.5905742453       -1.3640432902        0.8809334088
 N          3.8330881375       -1.2711656908        0.2254850510
 S          4.5813718735        0.2235662490        0.1371743165
 O          5.5972013027        0.0685432822       -0.8804128227
 O          5.0517426986        0.5972416944        1.4478908558
 C          3.3323942970        1.3671777878       -0.4170531702
 C          3.0429762706        1.4111905103       -1.7657327537
 C          2.0620465164        2.2795702018       -2.2125247472
 C          1.3866325035        3.0800658178       -1.3055855595
 C          1.6821563558        3.0173554381        0.0463556842
 C          2.6635644791        2.1514367800        0.4994811528
 H          2.9264662006        2.0782252006        1.5421646708
 H          1.1490419982        3.6382057079        0.7487156135
 H          0.6242623507        3.7580933622       -1.6560151343
 H          1.8234181723        2.3261467890       -3.2631637934
 H          3.5985945668        0.7806957490       -2.4415432194
 H          3.8314806284       -1.7013030575       -0.6885338998
 H          3.2926154577       -0.3857446757        2.6428477855
 H          1.0980855814       -0.5517668948        3.7905174195
 H         -0.8144745468       -1.6081600044        2.6446527110
 C         -0.9297813558       -2.6536325532        0.1963676009
 H         -1.4121186873       -3.3439466233        0.9076380069
 C         -0.5917132616       -3.4735015330       -1.0399740492
 C         -1.6272828446       -3.7400182475       -2.0900925149
 C         -0.4556231902       -2.8599705172       -2.4001459046
 H          0.3084960692       -3.2434704591       -3.0610848633
 H         -0.6176523886       -1.7974286575       -2.4888619985
 H         -2.5967874063       -3.2806018357       -1.9638103530
 H         -1.6665959620       -4.7237527200       -2.5333442276
 H          0.0766059736       -4.2971957981       -0.8063581971
 O         -0.4033861742        0.0424293883       -0.8456271221
