  62
        -98.93934618
 C         -2.3580658961       -1.2670305329       -0.0977789535
 C         -3.3056644080       -0.7719171205        0.8335713117
 C         -4.1776999568        0.3268841169        0.3862871986
 C         -4.0266735020        0.8211455019       -0.8564230539
 C         -4.7808545181        1.9035319204       -1.6003070483
 C         -5.7194136530        2.8512114873       -0.8582760384
 C         -5.0231404978        3.8220417802        0.0950838398
 H         -4.4571845368        4.5447265489       -0.4983270055
 H         -5.7904334520        4.3713149534        0.6448913877
 C         -4.0549365648        3.1890152996        1.0915268123
 H         -3.6229070456        3.9927499299        1.6941218448
 H         -3.2299452615        2.7163080942        0.5535996025
 C         -4.6730517964        2.1720209215        2.0489082419
 H         -5.5168544688        2.6260127976        2.5720069295
 H         -3.9134714934        1.9190755013        2.7934827418
 C         -5.1452705283        0.8574233312        1.4048304812
 H         -5.2070320813        0.1000906674        2.1916124647
 H         -6.1377409968        0.9625808675        0.9735487595
 H         -6.4874278877        2.2878470195       -0.3367114463
 H         -6.2270832459        3.4468635020       -1.6218129778
 H         -5.3546940509        1.3843338339       -2.3760065217
 H         -4.0188918704        2.4904361622       -2.1235575765
 O         -3.0959654367        0.3169455109       -1.7174823728
 C         -2.2399827861       -0.7159874836       -1.3719192741
 O         -1.4536322867       -1.0333706808       -2.2872844392
 O         -3.4290600437       -1.2411151830        1.9960191589
 C         -1.4478877802       -2.3923764695        0.3692728926
 C         -0.0882655430       -1.8216165116        0.6925514580
 C          0.2525929442       -1.5250344867        2.0080565874
 C          1.4721387912       -0.9444494132        2.3068820285
 C          2.3722996625       -0.6397733043        1.3011593470
 C          2.0339232351       -0.9170121104       -0.0165121111
 C          0.8195562065       -1.5190079732       -0.3121632490
 H          0.5565073315       -1.7084740332       -1.3416227849
 N          2.9327397866       -0.5860169426       -1.0492875042
 S          3.4611705033        1.0095198751       -1.1047013137
 O          2.4974450434        1.9110302728       -0.5147893390
 O          3.8092213102        1.2518568148       -2.4880119964
 C          4.9537189782        0.9872570000       -0.1322515497
 C          5.0902202626        1.8414141947        0.9444094920
 C          6.2633024861        1.8070174144        1.6825303131
 C          7.2737225664        0.9247449697        1.3320419805
 C          7.1221830274        0.0755664258        0.2458016874
 C          5.9525514321        0.1054454808       -0.4965222169
 H          5.7952314650       -0.5340137068       -1.3489086664
 H          7.9100759979       -0.6090458993       -0.0238687950
 H          8.1847019191        0.8989967641        1.9088577212
 H          6.3826409704        2.4667946605        2.5268886401
 H          4.2748265250        2.5058458759        1.1826898795
 H          2.5993804028       -0.8673034870       -1.9611989207
 H          3.3203571692       -0.1786267213        1.5251546290
 H          1.7237040453       -0.7229497794        3.3328891990
 H         -0.4585682304       -1.7365639296        2.7936823163
 H         -1.8935620666       -2.7493056250        1.3072110662
 C         -1.3831541748       -3.5506324431       -0.6048331427
 C         -0.8494277313       -4.8675833235       -0.1290423642
 C         -2.3107518675       -4.7128392926       -0.4219936213
 H         -2.7159507035       -5.1901004597       -1.3016534232
 H         -2.9980647942       -4.6778520510        0.4105668826
 H         -0.2479787274       -5.4545740089       -0.8059225506
 H         -0.5446142532       -4.9363342976        0.9041696356
 H         -1.1621826696       -3.2530050577       -1.6216507749
