  62
        -98.93157366
 C          1.9706285580        0.7536430324        0.2101758205
 C          2.2305776256       -0.3864732111        1.0078995431
 C          2.9007403931       -1.5043759747        0.3361891091
 C          3.1935069489       -1.4136872501       -0.9738216307
 C          3.8599143404       -2.4742834730       -1.8080804952
 C          5.3918591753       -2.4744823626       -1.7099503108
 C          5.9608054051       -2.9992879843       -0.3910975004
 H          5.5229061634       -3.9729849321       -0.1695713484
 H          7.0316284118       -3.1495314697       -0.5417176977
 C          5.7590379726       -2.0585864977        0.8050474661
 H          5.5122930436       -1.0574502515        0.4441247635
 H          6.6927889462       -1.9761265810        1.3657429186
 C          4.6789102856       -2.5074536220        1.7895000391
 H          4.5937398103       -1.7517943253        2.5747247394
 H          4.9766869355       -3.4479436890        2.2583568970
 C          3.2914236924       -2.6933417861        1.1611410881
 H          3.2698691200       -3.5994317003        0.5557182998
 H          2.5578430681       -2.7936413035        1.9653419186
 H          5.7690205989       -3.1040762576       -2.5190090965
 H          5.7521179509       -1.4579946497       -1.8833927720
 H          3.4746198430       -3.4552842351       -1.5285207534
 H          3.5810472568       -2.2732315443       -2.8445843938
 O          2.8919358308       -0.3160359136       -1.7156512199
 C          2.2916080429        0.8008859562       -1.1464523539
 O          2.1040650277        1.7350491197       -1.9457161878
 O          1.9195302078       -0.4632247256        2.2288084495
 C          1.2925723947        1.9486222349        0.8684390201
 C          0.0957446036        2.3484618783        0.0407613261
 C         -0.0820986323        3.5153419486       -0.6900427196
 C         -1.2517652052        3.7297394910       -1.4013283305
 C         -2.2686791391        2.7966163577       -1.4074943644
 C         -2.0942654120        1.6081181044       -0.7046994072
 C         -0.9274623651        1.4016163278        0.0090720507
 H         -0.8056748823        0.4746785224        0.5531671537
 N         -3.0844470594        0.6132158170       -0.7399725178
 S         -3.1934227485       -0.5208719052        0.4983900168
 O         -3.1688712151        0.1346965376        1.7871643519
 O         -2.2030624172       -1.5454843153        0.2765864412
 C         -4.8222114613       -1.1723139829        0.1785269969
 C         -4.9757803492       -2.1272125707       -0.8088645151
 C         -6.2455973243       -2.6109595173       -1.0812458238
 C         -7.3347810141       -2.1340743658       -0.3668292366
 C         -7.1650892892       -1.1771300831        0.6223364163
 C         -5.8978775566       -0.6884053747        0.8990493987
 H         -5.7156443999        0.0488392209        1.6642811636
 H         -8.0129605731       -0.8106567494        1.1781782635
 H         -8.3216332221       -2.5130326846       -0.5805324241
 H         -6.3807829885       -3.3570755463       -1.8475637132
 H         -4.0985181695       -2.4729537314       -1.3307515747
 H         -3.9882809557        0.9578680766       -1.0314463100
 H         -3.1780771562        2.9707701382       -1.9617407962
 H         -1.3680636895        4.6460034841       -1.9603586986
 H          0.6889833181        4.2615200200       -0.7410678387
 H          0.8858895781        1.5418728830        1.8108337122
 C          2.3551421637        2.9517802764        1.2929110994
 C          3.0331004601        3.9352408599        0.3906346227
 C          2.1369709656        4.4207907297        1.4926151814
 H          2.6019223825        4.8820629760        2.3515534372
 H          1.1737517095        4.8360454727        1.2464419521
 H          4.0994874152        4.0669415528        0.5076130761
 H          2.7101232691        3.9858772035       -0.6363688033
 H          3.0049355901        2.4730990644        2.0232885557
