  62
        -98.94702456
 C         -2.2800022612       -0.5345401747       -0.4738847019
 C         -1.4527479763        0.3964020519       -1.1462924403
 C         -1.7413595865        1.8169245014       -0.8992717891
 C         -2.7283221055        2.1578548567       -0.0530767206
 C         -3.0942680437        3.5632097747        0.3254174030
 C         -2.3356425164        4.0252381236        1.5767692189
 C         -0.8271069116        3.7818002683        1.5176790969
 H         -0.3958334801        4.1957170030        2.4324430282
 H         -0.6269347312        2.7071757640        1.5345625180
 C         -0.1284664357        4.4006440216        0.2990496590
 H          0.7925206134        4.8822886604        0.6346077640
 H         -0.7598526267        5.1741375588       -0.1410856569
 C          0.2661083821        3.3842114352       -0.7738868127
 H          0.7829443630        2.5486977056       -0.2950175126
 H          0.9714562776        3.8636319097       -1.4584163788
 C         -0.8896002690        2.8272067912       -1.6156902287
 H         -1.5022721571        3.6499775454       -1.9907364121
 H         -0.4568441119        2.3031702189       -2.4727606415
 H         -2.5268032278        5.0907453376        1.7203666299
 H         -2.7335049860        3.4889961750        2.4416276814
 H         -2.8755105991        4.2265840524       -0.5092187626
 H         -4.1659025467        3.5938485789        0.5311009216
 O         -3.4970385088        1.2400093580        0.5872127214
 C         -3.2842139767       -0.1142161672        0.4036238371
 O         -4.0568051108       -0.8436945321        1.0595781692
 H          0.4320777429       -1.2013027979       -0.2691134251
 C          0.1702729492       -1.9563628192        0.4513336090
 C         -1.0961082421       -2.5229327612        0.4222251205
 C         -1.4099068172       -3.5084863768        1.3498671741
 C         -0.4808098998       -3.9014500961        2.2970406873
 C          0.7601379978       -3.2945378387        2.3570903490
 C          1.0837131647       -2.3057276511        1.4333355835
 N          2.3265024602       -1.6571801411        1.4832630871
 S          2.4499768813        0.0139204694        1.3018937025
 O          3.3288874259        0.4374425378        2.3754015292
 O          1.1522262356        0.6392983859        1.2619250005
 C          3.3330678409        0.1914509401       -0.2354965075
 C          4.7135346385        0.1354446984       -0.1779767632
 C          5.4437486631        0.2440770148       -1.3492227143
 C          4.7844075276        0.4059852040       -2.5586538016
 C          3.4005687207        0.4606574291       -2.5998868331
 C          2.6622100265        0.3514299407       -1.4303819683
 H          1.5837453183        0.3902930404       -1.4522236215
 H          2.8813382646        0.5860457355       -3.5366806495
 H          5.3505830840        0.4916369204       -3.4728447924
 H          6.5205817109        0.2029442247       -1.3162136418
 H          5.1840771864        0.0229291700        0.7847767241
 H          2.9155196378       -1.9634247452        2.2444050625
 H          1.4734142234       -3.5758818030        3.1175320718
 H         -0.7338951956       -4.6703801547        3.0113963849
 H         -2.3950410709       -3.9514083272        1.3395689098
 C         -2.1187974297       -2.0443993857       -0.5817708398
 H         -3.0906086837       -2.4685210293       -0.2927388024
 C         -1.7808471465       -2.5337918903       -1.9758976770
 C         -2.1378610726       -3.9374558880       -2.3583661409
 C         -2.8878355026       -2.7841220002       -2.9532019573
 H         -2.7233024962       -2.5366259949       -3.9909338424
 H         -3.8995136475       -2.6057552908       -2.6178586302
 H         -2.6446045125       -4.5446546626       -1.6235614278
 H         -1.4560740753       -4.4873135525       -2.9885518316
 H         -0.8584616473       -2.1240410677       -2.3641686432
 O         -0.5160851686        0.0851851747       -1.9300628684
