  62
        -98.93552256
 C         -2.3506490851       -1.3879939915        0.0607667851
 C         -2.9761042687       -0.6057127961        1.0641050420
 C         -3.7691795587        0.5527798375        0.6211201371
 C         -3.8458618172        0.8317963614       -0.6930678538
 C         -4.5964739748        1.9123049368       -1.4429895544
 C         -5.1820420865        3.1116370487       -0.7025695140
 C         -4.1453365297        4.0632554194       -0.1062025261
 H         -4.6728629378        4.8196994077        0.4788914210
 H         -3.6308020705        4.5739034686       -0.9242606859
 C         -3.0775519758        3.4140947235        0.7712903497
 H         -2.4075420567        4.2041053149        1.1220483848
 H         -2.4706508870        2.7306464401        0.1724100398
 C         -3.6012293520        2.6707534152        1.9987302120
 H         -4.2300276513        3.3380485381        2.5913492687
 H         -2.7354602487        2.3958105415        2.6072717002
 C         -4.3899596835        1.3824972086        1.7076434512
 H         -5.4305480598        1.5988930746        1.4782325564
 H         -4.3727706426        0.7656617521        2.6108046326
 H         -5.8782342357        2.7789819260        0.0615528907
 H         -5.7628947946        3.6765135960       -1.4367671234
 H         -5.4093446397        1.3989714847       -1.9686936961
 H         -3.9079909173        2.2697962272       -2.2156384957
 O         -3.2207214210        0.0555255789       -1.6246453377
 C         -2.4535633888       -1.0501377206       -1.2869170370
 O         -1.9421456885       -1.6165934149       -2.2726518909
 O         -2.8878816717       -0.8775707036        2.2912319877
 C         -1.5328059912       -2.5778548848        0.5354186267
 C         -0.0936716403       -2.1662425817        0.7107476906
 C          0.5538275526       -2.2955616011        1.9329916277
 C          1.8598035087       -1.8621711397        2.0874470501
 C          2.5431373676       -1.2893190637        1.0295752903
 C          1.9028364643       -1.1541950736       -0.1954087466
 C          0.5989883768       -1.5956987707       -0.3494684982
 H          0.1044963125       -1.4822655733       -1.3037542663
 N          2.5867964574       -0.5471027697       -1.2754183949
 S          2.8382240750        1.1086986500       -1.0781939211
 O          1.7818352551        1.7111625571       -0.2948166518
 O          3.0288255634        1.6352112078       -2.4122224974
 C          4.3793997917        1.1865483348       -0.1913815276
 C          4.4191264686        1.7367070808        1.0745482777
 C          5.6303876216        1.7789606174        1.7477838692
 C          6.7725609716        1.2727416016        1.1463155445
 C          6.7156452032        0.7252853495       -0.1270670829
 C          5.5085636848        0.6809702501       -0.8060898633
 H          5.4182881175        0.2692949397       -1.7973893914
 H          7.6061132298        0.3330897643       -0.5912243358
 H          7.7129594465        1.3053657763        1.6734135366
 H          5.6765169037        2.2042304754        2.7374388325
 H          3.5032170332        2.1112718582        1.5029692463
 H          2.1109894469       -0.6940844922       -2.1561671646
 H          3.5587454920       -0.9470070759        1.1438274489
 H          2.3493806703       -1.9673282747        3.0433905802
 H          0.0189576491       -2.7198229530        2.7699994700
 H         -1.9349428971       -2.8091947941        1.5341610050
 C         -1.7135787576       -3.8171475212       -0.3303616763
 C         -0.6089746965       -4.4518926564       -1.1167666253
 C         -1.1292917950       -5.1254361051        0.1150269550
 H         -1.7216030754       -6.0213671413        0.0087968842
 H         -0.5001887654       -5.1104838604        0.9923271835
 H         -0.8593661860       -4.8635046447       -2.0827497252
 H          0.3727000035       -4.0067304828       -1.0770966896
 H         -2.6997221802       -3.8542150257       -0.7817413273
