  62
        -98.94892857
 C         -2.2386295725       -0.8440244269        0.0793728689
 C         -1.5900837669       -0.1118628282       -0.9438453778
 C         -1.9833938346        1.2970191452       -1.0750809685
 C         -2.8800024057        1.8126033131       -0.2151851013
 C         -3.3762579451        3.2292592848       -0.2362526187
 C         -2.5391457441        4.1461045214        0.6646691366
 C         -1.0312147741        4.0327016779        0.4400302423
 H         -0.5498587632        4.7670891816        1.0907610399
 H         -0.6845630285        3.0493735344        0.7667459359
 C         -0.5816150183        4.2630768621       -1.0094243630
 H         -1.3608076211        4.7882462880       -1.5642537750
 H          0.3016698531        4.9052863203       -0.9995744197
 C         -0.1929242060        2.9828390973       -1.7515085566
 H          0.4744804253        2.3948586787       -1.1162607269
 H          0.3631428680        3.2620994582       -2.6507235372
 C         -1.3596160659        2.0879919465       -2.1900720518
 H         -0.9671905751        1.3504127590       -2.8963043402
 H         -2.1127379076        2.6897560954       -2.7042299978
 H         -2.7482772605        3.8950773265        1.7073542355
 H         -2.8567737428        5.1769498797        0.4936474289
 H         -3.3550610490        3.5957471498       -1.2610114024
 H         -4.4084652190        3.2328756966        0.1196307472
 O         -3.4347992806        1.0942600948        0.7961585474
 C         -3.1185436058       -0.2422000702        0.9759867900
 O         -3.6797143613       -0.7786803919        1.9555156540
 O         -0.7406216240       -0.6163508558       -1.7237098057
 C         -1.9278189978       -2.3208741709        0.2644086163
 C         -0.4376901448       -2.4909059019        0.4216768116
 C          0.3255882841       -3.3895915541       -0.3120691911
 C          1.7037167310       -3.4156843454       -0.1797212237
 C          2.3491932474       -2.5350619421        0.6695307013
 C          1.5902061160       -1.6556390290        1.4289459385
 C          0.2111805843       -1.6569261602        1.3243105572
 H         -0.3704621611       -0.9538620862        1.9091307770
 N          2.2632969490       -0.6838302958        2.2304078039
 S          2.2759822248        0.8004089304        1.4162776930
 O          3.0189449283        1.7083775994        2.2654226318
 O          0.9341988248        1.2295507448        1.0855767216
 C          3.2087577340        0.4163499401       -0.0451258868
 C          4.5861979612        0.4989314722        0.0246796175
 C          5.3354254366        0.1536772097       -1.0879038926
 C          4.6961057969       -0.2716300142       -2.2431614314
 C          3.3131529915       -0.3506939633       -2.2944722560
 C          2.5549965340       -0.0060629731       -1.1856888358
 H          1.4770155111       -0.0689398766       -1.2009026572
 H          2.8107036609       -0.6846967664       -3.1879428186
 H          5.2785283838       -0.5441161881       -3.1092334037
 H          6.4112196602        0.2138681883       -1.0505613648
 H          5.0338955685        0.8372531335        0.9446903695
 H          1.8095989015       -0.5368624325        3.1232664902
 H          3.4237185218       -2.5134338850        0.7504127053
 H          2.2830027176       -4.1121910298       -0.7656416022
 H         -0.1588471411       -4.0567055745       -1.0061092591
 H         -2.4185085091       -2.6229585432        1.2012035252
 C         -2.5127304460       -3.1229612279       -0.8793421694
 C         -2.9055929931       -4.5545295895       -0.6745825734
 C         -3.9610881914       -3.5024504285       -0.8310671234
 H         -4.5323252724       -3.4735548483       -1.7466881384
 H         -4.5224360470       -3.2015800518        0.0418331373
 H         -2.7566943097       -5.2517235983       -1.4850570000
 H         -2.7563190705       -4.9785132068        0.3068415098
 H         -2.1040695275       -2.8337822138       -1.8407293020
