  62
        -98.94149323
 C         -1.6115985502       -1.1724616103        0.1640751510
 C         -1.6666735601        0.1711331097        0.6152590511
 C         -2.7548898601        0.9988855197        0.0814138813
 C         -3.6134812703        0.4581105998       -0.8021159085
 C         -4.7971119904        1.1662192999       -1.3934646883
 C         -6.0576605103        0.9429061898       -0.5466361981
 C         -5.8519180700        1.2029157397        0.9456704719
 H         -6.8136325099        1.0466607897        1.4391722521
 H         -5.1612950599        0.4570668597        1.3460706617
 C         -5.3283843499        2.6070369597        1.2787975019
 H         -5.9006918598        3.0032837996        2.1202432321
 H         -5.4934572901        3.2746814697        0.4324503720
 C         -3.8535331798        2.6550843096        1.6826357817
 H         -3.6489162497        3.6424518196        2.1053163717
 H         -3.6648619397        1.9189777796        2.4683562516
 C         -2.8416437100        2.4233874797        0.5531442215
 H         -3.0626491402        3.0936093498       -0.2803418684
 H         -1.8506571900        2.6716205397        0.9453088313
 H         -6.3807125303       -0.0930895302       -0.6722354681
 H         -6.8481116603        1.5933663399       -0.9253498379
 H         -4.5792868804        2.2299971699       -1.4650892582
 H         -4.9691953906        0.7704306399       -2.3957066683
 O         -3.5220425504       -0.8258956502       -1.2254308687
 C         -2.5249912503       -1.6780239402       -0.7624724789
 O         -2.5798988204       -2.8199236502       -1.2518169390
 H          1.9958163901       -1.1624591904        1.3957770003
 C          1.9242423499       -1.4243392003        0.3509809803
 C          0.7286695098       -1.8943324303       -0.1704693295
 C          0.6637386495       -2.2079942602       -1.5256840095
 C          1.7781344594       -2.0629803701       -2.3304430197
 C          2.9668712695       -1.5806755602       -1.8090741799
 C          3.0379465497       -1.2524546303       -0.4612032499
 N          4.2275462898       -0.7525792203        0.0980883199
 S          4.1625527000        0.6605276096        0.9995198900
 O          5.5423687100        1.0825179596        1.1049250798
 O          3.4771512102        0.4187954495        2.2416232601
 C          3.2627717398        1.8003924897       -0.0357350197
 C          3.9857137297        2.5266529698       -0.9635943498
 C          3.3128556595        3.3657695998       -1.8355371696
 C          1.9299666195        3.4546019098       -1.7752882193
 C          1.2205280997        2.7179227198       -0.8405193793
 C          1.8873369299        1.8817363197        0.0423295205
 H          1.3433334300        1.3097929797        0.7779991406
 H          0.1445209597        2.7780427798       -0.7868358191
 H          1.4015742994        4.1020987099       -2.4572270092
 H          3.8644498794        3.9434287599       -2.5596578697
 H          5.0596472497        2.4315302897       -0.9710106700
 H          4.9976264097       -0.7079201603       -0.5547158802
 H          3.8332511894       -1.4584817101       -2.4412015701
 H          1.7185193992       -2.3173766800       -3.3778392297
 H         -0.2689396306       -2.5664722701       -1.9349066894
 C         -0.4818358701       -2.0229737203        0.7183769807
 H         -0.2267177799       -1.5566503604        1.6838754207
 C         -0.8798907800       -3.4634706903        1.0054852007
 C         -0.2915947602       -4.6466854603        0.3026776005
 C          0.0810783801       -4.3638525204        1.7248809204
 H         -0.2951188098       -5.0110330405        2.5026765604
 H          1.0714619701       -3.9759666704        1.9141426903
 H         -0.9485018202       -5.4767160503        0.0919572705
 H          0.4510410697       -4.4758966602       -0.4602000997
 H         -1.9245943500       -3.5481921404        1.2861334609
 O         -0.8391197999        0.6547219296        1.4346742010
