  62
        -98.94657641
 C          1.3016552878        1.1283792637       -0.1367626645
 C          2.3033048160        0.9568591026        0.8541684079
 C          3.0734760926       -0.2889098882        0.7872998200
 C          2.7863451429       -1.1976411478       -0.1619849767
 C          3.4677262542       -2.5262349326       -0.3506995537
 C          4.7741426447       -2.4498576375       -1.1532118531
 C          5.9578538409       -1.8232533984       -0.4153008810
 H          6.0841175684       -2.3131939645        0.5506908422
 H          6.8515299785       -2.0346597369       -1.0059284234
 C          5.8476008014       -0.3053125062       -0.2146510853
 H          5.0926330777        0.0984096221       -0.8932128041
 H          6.7972918157        0.1666731922       -0.4767137713
 C          5.5080544304        0.1220899689        1.2132940265
 H          5.4167836768        1.2110864630        1.2324796611
 H          6.3236070741       -0.1584256864        1.8836321067
 C          4.2022535268       -0.4731648382        1.7560668710
 H          4.3388011171       -1.5294441499        1.9864124801
 H          3.9412031601        0.0556604711        2.6758971307
 H          5.0467032967       -3.4711542031       -1.4292598647
 H          4.5862783780       -1.8956807768       -2.0756642991
 H          3.6652002587       -2.9798261396        0.6211194030
 H          2.7690506155       -3.1612683744       -0.8992469380
 O          1.8005570567       -1.0099843046       -1.0759116100
 C          1.0410679470        0.1501613000       -1.0969814928
 O          0.1932325481        0.1712026362       -2.0102934617
 O          2.5423411746        1.8079901875        1.7509622567
 C          0.4879942320        2.4125462239       -0.0880243369
 C         -0.8803048826        2.0872624723        0.4569468592
 C         -1.1398903343        2.2190875932        1.8173003751
 C         -2.3647831641        1.8487918652        2.3431113914
 C         -3.3503664264        1.3219320145        1.5265363465
 C         -3.0933261242        1.1737256121        0.1704523972
 C         -1.8762027735        1.5731246846       -0.3606883271
 H         -1.6848098082        1.4343485483       -1.4130246803
 N         -4.0686901478        0.5778529020       -0.6619689877
 S         -4.4229994830       -1.0163514074       -0.2791088878
 O         -5.0348700774       -1.5764590955       -1.4626956554
 O         -5.2253186178       -1.0376937589        0.9183425171
 C         -2.8445396419       -1.7853858451        0.0362103560
 C         -2.1126506810       -2.2578979582       -1.0340101639
 C         -0.8635440907       -2.8088072164       -0.8015258509
 C         -0.3638022526       -2.8610316041        0.4899882943
 C         -1.1074412746       -2.3747969815        1.5537940112
 C         -2.3622430852       -1.8332853735        1.3287318174
 H         -2.9746998650       -1.4549289105        2.1304550017
 H         -0.7107228596       -2.4125186681        2.5558084954
 H          0.6139738745       -3.2802978181        0.6693685141
 H         -0.2783730096       -3.1764456859       -1.6290224168
 H         -2.5308053081       -2.1966042410       -2.0259944877
 H         -3.8179133564        0.6279218804       -1.6402986651
 H         -4.3023851012        1.0029674309        1.9191792483
 H         -2.5524679183        1.9639501066        3.3998359150
 H         -0.3622314876        2.6005830207        2.4633725236
 H          1.0008268042        3.0506092225        0.6437529339
 C          0.4450836876        3.1391178543       -1.4163583689
 C         -0.0061656496        4.5678180350       -1.4475741522
 C          1.4343814880        4.2312525273       -1.6863703334
 H          1.8298419616        4.3319998783       -2.6860860894
 H          2.1484510295        4.4640079525       -0.9099817585
 H         -0.6024340216        4.9029040204       -2.2823929742
 H         -0.2703285466        5.0268596640       -0.5068763018
 H          0.1734936487        2.5060618227       -2.2512078823
