  62
        -98.93834576
 C          2.2640041086        1.1976716693        0.1960127741
 C          2.4345534207        0.0452773322       -0.6039649221
 C          3.3882389529       -0.9736719464       -0.1154171878
 C          4.0047560835       -0.7812143045        1.0647475656
 C          5.0306071390       -1.6538002025        1.7369374926
 C          6.4238959363       -1.5257963553        1.0986465919
 C          6.4336151986       -1.5110958360       -0.4277977795
 H          5.8047625560       -0.6924245794       -0.7823991304
 H          7.4558785969       -1.2984770746       -0.7514594717
 C          5.9949834961       -2.8130759029       -1.0936607085
 H          6.1225427856       -2.6860033436       -2.1717341290
 H          6.6581727789       -3.6199741574       -0.7739307884
 C          4.5501146361       -3.2440587356       -0.8339853324
 H          4.3159205604       -4.0424380350       -1.5445789827
 H          4.4416699498       -3.6747746701        0.1577899596
 C          3.5067955041       -2.1523504423       -1.0522937567
 H          3.6382941994       -1.7285154206       -2.0544957578
 H          2.5136797841       -2.6194093704       -1.0650045154
 H          7.0462990508       -2.3452760378        1.4615957549
 H          6.8662271418       -0.5876120462        1.4422067093
 H          5.0919053366       -1.3212007849        2.7755027507
 H          4.6966636236       -2.6871542230        1.7405214214
 O          3.7862146697        0.3316437585        1.8208368209
 C          2.9319017045        1.3347131256        1.4170531676
 O          2.8500817826        2.2906244407        2.2141289558
 H         -0.2454246009        0.5465010335       -1.4325588136
 C         -0.7629257992        1.0394550719       -0.6231071637
 C         -0.0932782952        1.9933612166        0.1299109785
 C         -0.7599920440        2.5870941706        1.1955381911
 C         -2.0653781597        2.2370442404        1.4926441651
 C         -2.7303908903        1.2879049007        0.7369840649
 C         -2.0673292979        0.6781124988       -0.3196539745
 N         -2.7288824607       -0.2996096379       -1.0862940817
 S         -3.4288479233       -1.5820134806       -0.2562504381
 O         -2.7553030763       -1.8349793861        0.9974841142
 O         -3.4634936068       -2.6773981537       -1.2009373182
 C         -5.0951724255       -1.0282709381        0.0429461418
 C         -5.8619174332       -0.6606100339       -1.0455844327
 C         -7.1624944532       -0.2320874575       -0.8338062837
 C         -7.6724682973       -0.1810376617        0.4550941293
 C         -6.8911277144       -0.5567127523        1.5370652186
 C         -5.5887864059       -0.9857273881        1.3320664909
 H         -4.9424468033       -1.2826506394        2.1428416881
 H         -7.2891623428       -0.5167074688        2.5382972248
 H         -8.6849578385        0.1533269964        0.6175005400
 H         -7.7731933979        0.0606254744       -1.6726330802
 H         -5.4283793857       -0.7189276372       -2.0299335069
 H         -2.1654760873       -0.6463689803       -1.8503981852
 H         -3.7456668310        1.0078018861        0.9659575374
 H         -2.5704300562        2.7072923079        2.3226407677
 H         -0.2386676044        3.3132154786        1.8026181272
 C          1.3419304022        2.3504893987       -0.1752436111
 H          1.6275022892        3.1768007448        0.4892552972
 C          1.5147559393        2.8093858045       -1.6097809914
 C          1.0552701512        4.1833059542       -1.9905816246
 C          2.5202682911        3.8750674286       -1.9204629069
 H          3.0792963566        3.8022404556       -2.8413282294
 H          3.0890710969        4.2811156690       -1.0964124295
 H          0.6054331231        4.3251840686       -2.9611077869
 H          0.6305909595        4.8004733267       -1.2133780537
 H          1.3947127199        2.0169635779       -2.3362175756
 O          1.8386898165       -0.1548758499       -1.6980317704
