  62
        -98.95136099
 C          1.8100123697        1.2702995752       -0.2855904319
 C          2.9107915736        0.6023865544        0.2980387088
 C          3.2431873804       -0.7038809098       -0.2787954803
 C          2.5228763448       -1.1814277950       -1.3102619854
 C          2.7241755827       -2.5078695401       -1.9902084422
 C          2.0254188788       -3.6676394392       -1.2667328976
 C          2.7066506439       -4.1292204507        0.0223452556
 H          2.2621818356       -5.0891636732        0.2929712088
 H          3.7677871476       -4.3002423147       -0.1651669808
 C          2.5361386358       -3.1623565323        1.2025195935
 H          1.6990416376       -2.4889921376        0.9993456355
 H          2.2702426068       -3.7279317045        2.0993935649
 C          3.7823202751       -2.3421628778        1.5392101816
 H          4.5743156884       -3.0090681682        1.8886883138
 H          3.5306190037       -1.6610508996        2.3564782675
 C          4.3284238189       -1.5044917639        0.3756698999
 H          5.0641928507       -0.8024618154        0.7765408357
 H          4.8194941135       -2.1486225937       -0.3533331197
 H          0.9982656693       -3.3685839226       -1.0406334452
 H          1.9868747894       -4.5128977079       -1.9582537020
 H          2.2947533445       -2.4151938982       -2.9900493307
 H          3.7893600375       -2.7209654537       -2.0853954636
 O          1.5044514075       -0.4853637535       -1.8770982191
 C          1.0900760389        0.7241291106       -1.3474581751
 O          0.0944478927        1.2194199926       -1.9124402870
 H          0.2238443735        0.4112499890        1.4546178190
 C         -0.5017244638        1.2008422677        1.3233763872
 C         -0.1156647998        2.4114217468        0.7619592897
 C         -1.0730987914        3.4090976571        0.6256870627
 C         -2.3836725493        3.1838295447        1.0117861928
 C         -2.7740695829        1.9552157250        1.5126335744
 C         -1.8207469288        0.9554057002        1.6631741681
 N         -2.1586745585       -0.3360864555        2.1253576659
 S         -2.0188874690       -1.5616368500        0.9840189466
 O         -2.4871846841       -2.7565344857        1.6540841448
 O         -0.6769863745       -1.6055391879        0.4674096649
 C         -3.1923043826       -1.0929736990       -0.2750759206
 C         -2.8347903806       -0.1627077954       -1.2300434409
 C         -3.7959425219        0.2597320761       -2.1369467608
 C         -5.0846172543       -0.2463365196       -2.0728663158
 C         -5.4258555275       -1.1815774550       -1.1069143875
 C         -4.4737824158       -1.6052352594       -0.1947838136
 H         -4.6901943183       -2.3316066004        0.5721514263
 H         -6.4277993594       -1.5768411578       -1.0599468330
 H         -5.8259664121        0.0898843046       -2.7805480296
 H         -3.5220569673        0.9865411070       -2.8848266960
 H         -1.8248529903        0.2167383843       -1.2689918451
 H         -3.0789322925       -0.3881448820        2.5419966174
 H         -3.8028845351        1.7673253989        1.7809708089
 H         -3.1155407031        3.9688103112        0.8984219856
 H         -0.7938507210        4.3626657940        0.2079895318
 C          1.3205619760        2.5706096687        0.3245443517
 H          1.9437211325        2.7307539024        1.2175960901
 C          1.5302793600        3.7269425219       -0.6313131746
 C          1.8193284966        5.1021840476       -0.1096829959
 C          2.9044366123        4.3079782594       -0.7703161548
 H          3.2417490450        4.6057561670       -1.7516903489
 H          3.6829284913        3.8867759212       -0.1509505651
 H          1.4138752039        5.9506498996       -0.6400123455
 H          1.8694794226        5.2314715499        0.9609053211
 H          0.9332235956        3.6327495370       -1.5314785814
 O          3.5752572428        1.0715978308        1.2628616651
