  62
        -98.94311518
 C          2.0547636544        1.3776609632        0.3310043752
 C          2.0608638537        0.2392729655        1.1796011434
 C          3.0529491092       -0.7953934468        0.8750296886
 C          3.9008673872       -0.6191524987       -0.1544870036
 C          5.0018185623       -1.5578449847       -0.5678036225
 C          4.5393417884       -2.7047255462       -1.4765988115
 C          3.7124096505       -3.7880708753       -0.7835407673
 H          3.6424882858       -4.6292231912       -1.4761466708
 H          4.2447621079       -4.1390901861        0.1010083983
 C          2.2937792638       -3.3481718852       -0.3948957125
 H          2.0301411279       -2.4409883473       -0.9433431149
 H          1.5829593036       -4.1213671661       -0.6930948785
 C          2.0927545066       -3.0958639325        1.0994961612
 H          2.2184593709       -4.0307267493        1.6500429212
 H          1.0690221147       -2.7449145111        1.2527398642
 C          3.0430109908       -2.0492923755        1.6958706994
 H          2.6849356987       -1.7899807960        2.6951229854
 H          4.0502062965       -2.4571267265        1.7802639314
 H          3.9672468440       -2.2835083167       -2.3065074433
 H          5.4349779204       -3.1709272988       -1.8937658169
 H          5.7319217111       -0.9578680705       -1.1153989623
 H          5.4851450009       -1.9674724232        0.3197335196
 O          3.8608192565        0.4808999075       -0.9488556668
 C          2.9210532179        1.4857243015       -0.7575096302
 O          2.9847905397        2.3891728044       -1.6135178757
 O          1.2756905481        0.1035625000        2.1561397000
 C          1.0234796011        2.4475999008        0.6492705506
 C         -0.2309391221        2.2054168418       -0.1553356351
 C         -0.2508235493        2.3633327139       -1.5369445597
 C         -1.4074693107        2.1094439997       -2.2517633117
 C         -2.5633436300        1.6984058373       -1.6099724698
 C         -2.5502009146        1.5262463634       -0.2319024180
 C         -1.3868961134        1.7812159836        0.4839272876
 H         -1.3750776507        1.6342359227        1.5554020566
 N         -3.7198255655        1.1261062640        0.4405629547
 S         -4.5511354988       -0.2414792553       -0.0421401509
 O         -5.0088623759       -0.0664564768       -1.3966390211
 O         -5.5713178306       -0.4335871951        0.9619848725
 C         -3.3690944997       -1.5743287595        0.0372544452
 C         -3.3391630608       -2.3675414855        1.1669791662
 C         -2.4060648777       -3.3882344566        1.2460225518
 C         -1.5162052131       -3.5900582252        0.2024678872
 C         -1.5507766695       -2.7771875720       -0.9200861849
 C         -2.4859804376       -1.7584514427       -1.0080659604
 H         -2.5470063748       -1.1143547318       -1.8701017495
 H         -0.8520225574       -2.9322853356       -1.7266747035
 H         -0.7921344615       -4.3870583125        0.2642104775
 H         -2.3732943103       -4.0206355095        2.1186123670
 H         -4.0545705082       -2.1803192372        1.9515803836
 H         -3.6225092085        1.1237920406        1.4459104431
 H         -3.4697953477        1.4979927193       -2.1580215550
 H         -1.4118437303        2.2369343272       -3.3239897426
 H          0.6516541720        2.6686798640       -2.0441353971
 H          0.7720195592        2.2941628895        1.7076512635
 C          1.5272292048        3.8662022769        0.4823868102
 C          0.8145226913        4.9736612319        1.1969580591
 C          2.1816229162        4.5511775044        1.6427874624
 H          3.0162939420        5.2076080303        1.4481128531
 H          2.2687639241        3.9986352285        2.5671309678
 H          0.7068301184        5.9234421312        0.6962549339
 H         -0.0262864196        4.7083374525        1.8201419114
 H          1.9237333190        4.0755835853       -0.5017358123
