  62
        -98.94468642
 C          2.0141235718        0.7521488100        0.5609248523
 C          1.9592175663        0.0504554048       -0.6674809044
 C          2.0006065469       -1.4122912098       -0.5673969311
 C          2.0255911405       -1.9993447319        0.6423803228
 C          2.0164344147       -3.4806241293        0.9086743902
 C          3.3990883894       -4.1427560356        0.8289446855
 C          3.9711085895       -4.2875656312       -0.5817676603
 H          3.2332505805       -4.7713552659       -1.2223035841
 H          4.8315495712       -4.9557362711       -0.5109834003
 C          4.4225416827       -2.9666942661       -1.2202086941
 H          5.4061802832       -3.0996621884       -1.6759413260
 H          4.5277593092       -2.2047890514       -0.4445366135
 C          3.4870879398       -2.4366668074       -2.3069069966
 H          3.4710520945       -3.1321882807       -3.1488124064
 H          3.8819924828       -1.4824723750       -2.6642893772
 C          2.0444241109       -2.2047212834       -1.8384461805
 H          1.5293216887       -3.1565547821       -1.7089438402
 H          1.5177140698       -1.6266575086       -2.6017901938
 H          3.3069648491       -5.1399157954        1.2654860592
 H          4.0943091124       -3.5712454386        1.4480650282
 H          1.3328418176       -3.9687219184        0.2130136615
 H          1.6281606007       -3.6093060491        1.9216272075
 O          2.0433648255       -1.2890844472        1.8032714779
 C          2.0407946781        0.0962813945        1.7897911426
 O          2.0654647084        0.6220057143        2.9234017802
 O          1.8817822597        0.6160049474       -1.7898212497
 C          1.9260187952        2.2679413292        0.5656892887
 C          0.6353848562        2.6825715184       -0.1006190852
 C          0.5406394887        3.7169641735       -1.0221104069
 C         -0.6717700673        4.0054067552       -1.6254425712
 C         -1.8034331245        3.2659236909       -1.3365638231
 C         -1.7225500735        2.2423676839       -0.3981773921
 C         -0.5161117534        1.9773315658        0.2258591274
 H         -0.4657341762        1.1796515330        0.9541817955
 N         -2.8537583725        1.4795262766       -0.0574878673
 S         -2.6237735027       -0.1409081138        0.3609858082
 O         -2.2746724002       -0.2126525176        1.7590164835
 O         -1.7177448640       -0.7828263987       -0.5642057471
 C         -4.2815119860       -0.7585141802        0.1299913181
 C         -4.6104116321       -1.3890643820       -1.0550683885
 C         -5.9100978851       -1.8344046949       -1.2396136121
 C         -6.8543779996       -1.6394929633       -0.2428638570
 C         -6.5092242055       -1.0057177040        0.9417249628
 C         -5.2112819212       -0.5592314584        1.1331010069
 H         -4.8925910667       -0.0701350242        2.0388306323
 H         -7.2449108239       -0.8586704172        1.7158109364
 H         -7.8650120884       -1.9864536887       -0.3889676098
 H         -6.1798173656       -2.3305359785       -2.1579251215
 H         -3.8396237261       -1.5248026976       -1.7969042709
 H         -3.6119369422        1.5873337837       -0.7177985681
 H         -2.7406192362        3.4747107704       -1.8295387885
 H         -0.7308335594        4.8065003853       -2.3465734883
 H          1.4183340624        4.2868781655       -1.2795883225
 H          1.8809245463        2.5687936463        1.6232650084
 C          3.1583525348        2.8786896011       -0.0680204561
 C          3.6440013017        4.2275650740        0.3680189366
 C          4.4080990050        2.9965283007        0.7498333038
 H          5.3570799338        2.8062921479        0.2715723847
 H          4.3603356911        2.6589599986        1.7752632322
 H          4.0736359270        4.8850602742       -0.3725868621
 H          3.0848005049        4.7344077404        1.1398940906
 H          3.2657326454        2.6045381755       -1.1111820561
