  62
        -98.94347251
 C         -1.9823369925       -0.7909761646        0.5414728505
 C         -2.1007796694       -0.1102952381       -0.6941919101
 C         -2.3028674414        1.3400224672       -0.6045673598
 C         -2.3115049651        1.9415667123        0.5985572403
 C         -2.4595535907        3.4180743849        0.8493356046
 C         -3.9133545834        3.9105752504        0.8638552945
 C         -4.5970472591        3.9618568787       -0.5030139525
 H         -5.5236271783        4.5251085857       -0.3761623737
 H         -3.9694357902        4.5180394516       -1.1998154822
 C         -4.9323929200        2.5857588597       -1.0946744221
 H         -5.9546146182        2.5938119813       -1.4793057256
 H         -4.8919965851        1.8309181212       -0.3060811603
 C         -4.0199427098        2.1498932275       -2.2410377658
 H         -4.1472349377        2.8264739015       -3.0888675163
 H         -4.3226616238        1.1491232036       -2.5588489103
 C         -2.5302405220        2.0990865317       -1.8768878128
 H         -1.9970285247        1.5730781524       -2.6726781299
 H         -2.1259002527        3.1078555529       -1.7941390004
 H         -3.9100183556        4.9192033947        1.2834601618
 H         -4.4901722269        3.2722082430        1.5370052779
 H         -1.8904862610        3.9717440402        0.1018068780
 H         -2.0184628315        3.6098770823        1.8300880290
 O         -2.1618050241        1.2549162596        1.7638580911
 C         -1.9973472623       -0.1205768528        1.7626714558
 O         -1.8786184125       -0.6253888793        2.9003154448
 O         -2.0370336293       -0.6819191817       -1.8141952994
 C         -1.7348550929       -2.2869565698        0.5566455666
 C         -0.4559695162       -2.6124408195       -0.1800253484
 C         -0.2858732745       -3.7762533944       -0.9193295948
 C          0.9170184447       -4.0299719695       -1.5560541628
 C          1.9669532784       -3.1346065398       -1.4761875694
 C          1.8043456889       -1.9628266574       -0.7432721215
 C          0.6079221258       -1.7244089787       -0.0889458450
 H          0.4990840029       -0.8207194296        0.4934241739
 N          2.8306387510       -1.0053960074       -0.6951452203
 S          2.8479625066        0.1915563458        0.4847800886
 O          2.8231068429       -0.3978775276        1.8066168651
 O          1.8208862455        1.1602183741        0.1911319893
 C          4.4515651115        0.9022396444        0.1647336588
 C          5.5339510271        0.5201822514        0.9344129035
 C          6.7795015170        1.0608986361        0.6553743099
 C          6.9212793473        1.9670699813       -0.3846652843
 C          5.8254589662        2.3418821526       -1.1480821516
 C          4.5774241389        1.8058281518       -0.8735874570
 H          3.6949380989        2.0724335975       -1.4318108116
 H          5.9383652500        3.0490078311       -1.9539174681
 H          7.8912577749        2.3865318719       -0.5998981948
 H          7.6321954582        0.7742532236        1.2493919564
 H          5.3730703887       -0.1800839261        1.7382481261
 H          3.7495898599       -1.3824157461       -0.8785512027
 H          2.8994683626       -3.3295406947       -1.9827758157
 H          1.0372449915       -4.9390272492       -2.1255610622
 H         -1.0957975440       -4.4830667901       -0.9979364334
 H         -1.5949362075       -2.5621924320        1.6136672532
 C         -2.9398430099       -3.0280296456        0.0120880574
 C         -3.3172165813       -4.3725719529        0.5551580429
 C         -4.1511605152       -3.1715683581        0.8821828376
 H         -5.1265627121       -3.0778191977        0.4290857229
 H         -4.0918943557       -2.7618648123        1.8805507157
 H         -3.7251762501       -5.1065895237       -0.1233339955
 H         -2.7015354920       -4.7866518068        1.3395232362
 H         -3.1002793932       -2.8349399828       -1.0423300220
