  62
        -98.94121085
 C         -1.6311951856        0.5115480937       -0.9471766825
 C         -2.8672893290        1.0613007148       -0.5285192909
 C         -3.9839681323        0.1101876869       -0.4067046394
 C         -3.7842783165       -1.1913116485       -0.6791137216
 C         -4.8178946680       -2.2695313224       -0.5335651810
 C         -4.7713947148       -2.8994089047        0.8656605599
 C         -4.7628709687       -1.8783361986        2.0033995081
 H         -3.8305371694       -1.3099937169        1.9659553742
 H         -4.7604458891       -2.4371835030        2.9417912476
 C         -5.9496337346       -0.9047642540        1.9919384712
 H         -6.3400998924       -0.8165297503        3.0080219427
 H         -6.7517493809       -1.3052156504        1.3708404087
 C         -5.6046105290        0.5099801791        1.5232190277
 H         -4.7403148502        0.8801074766        2.0804857263
 H         -6.4498642070        1.1619761051        1.7595526272
 C         -5.3132359955        0.6633047606        0.0251256515
 H         -5.2797680045        1.7336574048       -0.1979604339
 H         -6.1232292276        0.2170132555       -0.5552380764
 H         -3.8652603082       -3.5045875270        0.9429138436
 H         -5.6325985335       -3.5611214588        0.9748588015
 H         -4.6155620524       -3.0422779570       -1.2770505372
 H         -5.8036667980       -1.8484126272       -0.7211807140
 O         -2.5842120952       -1.6844114562       -1.0772682779
 C         -1.4855785115       -0.8545444187       -1.2123765520
 O         -0.4469296178       -1.4399647981       -1.5778813663
 O         -3.0574643204        2.2782217148       -0.2648997077
 C         -0.3662155991        1.3370465003       -1.1220136242
 C          0.3140871343        1.5608380247        0.2074344746
 C         -0.2469006295        2.3707711025        1.1892437053
 C          0.4085967138        2.5622722898        2.3914879200
 C          1.6358038270        1.9687395639        2.6305581224
 C          2.2008815244        1.1513123013        1.6585688186
 C          1.5308716319        0.9447575104        0.4610141143
 H          1.9646561560        0.2981811027       -0.2862559457
 N          3.4297882982        0.5178440717        1.8809407019
 S          4.5007612784        0.2401753570        0.6283512777
 O          5.7786549870        0.0674161348        1.2858931820
 O          4.4375076601        1.2820575914       -0.3697041912
 C          3.9896588343       -1.3194750142       -0.0586144506
 C          3.8481396655       -2.3939125977        0.7967405926
 C          3.4672898983       -3.6187386579        0.2740197446
 C          3.2372967285       -3.7482504628       -1.0872922508
 C          3.3879058264       -2.6612173677       -1.9333662456
 C          3.7688799276       -1.4335808047       -1.4161584650
 H          3.8910424819       -0.5613386416       -2.0395432918
 H          3.2030266619       -2.7624420788       -2.9907114563
 H          2.9360801434       -4.7012417030       -1.4927792022
 H          3.3473367559       -4.4676856912        0.9278733408
 H          4.0378932745       -2.2550224554        1.8481226977
 H          3.8971834750        0.7690357338        2.7392747230
 H          2.1520922374        2.1318339920        3.5644842634
 H         -0.0355255867        3.1906948117        3.1488812352
 H         -1.2039878594        2.8337263694        1.0053067481
 H          0.3062965988        0.7197211037       -1.7331623102
 C         -0.5878078130        2.6522850631       -1.8435486960
 C          0.6044842007        3.3719545391       -2.3962544808
 C         -0.3764299364        2.7214998431       -3.3243049559
 H         -1.0294721504        3.3521533477       -3.9088023940
 H         -0.0757685683        1.8158144564       -3.8310671885
 H          0.6255167571        4.4497731012       -2.3436172838
 H          1.5725507917        2.9095135585       -2.2669823034
 H         -1.3881299766        3.2480553757       -1.4261457235
