  62
        -98.94569901
 C         -0.6965908842       -1.8019920478        0.0778954732
 C         -1.9115229878       -1.7000144075        0.8001573014
 C         -2.9241476901       -0.7992276076        0.2400045602
 C         -2.6489137901       -0.1010480601       -0.8765623629
 C         -3.6024007474        0.8050248765       -1.6095458160
 C         -3.7025283525        2.2290378755       -1.0469567652
 C         -4.4211511045        2.3534868910        0.2964891609
 H         -4.6016650207        3.4169335574        0.4663216363
 H         -5.3937605196        1.8638043801        0.2370213365
 C         -3.6343621403        1.7918022650        1.4893877394
 H         -2.5808558706        1.6737296801        1.2209034234
 H         -3.6650969773        2.5047856611        2.3169975400
 C         -4.1617004512        0.4588198959        2.0206632280
 H         -3.5033069785        0.1296766272        2.8290584447
 H         -5.1616969504        0.6007699841        2.4374230261
 C         -4.2242873156       -0.6590050850        0.9721717317
 H         -4.4172148769       -1.6020899956        1.4899102407
 H         -5.0381389951       -0.4712764073        0.2715169244
 H         -2.6975203433        2.6442070792       -0.9527455956
 H         -4.2448955993        2.8304974276       -1.7804229204
 H         -3.2405022517        0.8654009005       -2.6381826683
 H         -4.5942856948        0.3510006947       -1.6184867244
 O         -1.4492629433       -0.1808036789       -1.5082322698
 C         -0.4372729401       -1.0128026142       -1.0437638263
 O          0.6094924669       -0.9540714154       -1.7135688274
 O         -2.1441953801       -2.3457365574        1.8580363434
 C          0.3635096882       -2.7455625165        0.6134328672
 C          1.7151813845       -2.0760981114        0.6382337705
 C          2.8849941111       -2.6827664713        0.1989377009
 C          4.0937255780       -2.0121826135        0.2721535016
 C          4.1606483750       -0.7219668703        0.7628525746
 C          2.9938832527       -0.1033020618        1.1983282070
 C          1.7920964535       -0.7878647593        1.1536324488
 H          0.8961547812       -0.2970580156        1.5056962012
 N          3.0137417442        1.2146237296        1.6889241310
 S          1.8035219770        2.2733983487        1.2503814695
 O          2.3524134319        3.5813773142        1.5505911517
 O          0.5749967124        1.9501065799        1.9343058283
 C          1.5694947901        2.1444784030       -0.5133165386
 C          0.3118930668        2.4242289773       -1.0042380427
 C          0.0986664021        2.4039125211       -2.3718201763
 C          1.1465159135        2.0983576831       -3.2241576009
 C          2.4054216707        1.8214627361       -2.7177633405
 C          2.6258312264        1.8516419211       -1.3506427684
 H          3.5994812056        1.6362377674       -0.9424551635
 H          3.2166971705        1.5740349138       -3.3832960508
 H          0.9773637060        2.0677537279       -4.2890267553
 H         -0.8836061225        2.6121310591       -2.7654918824
 H         -0.4760999320        2.6368598586       -0.2974619474
 H          3.9171084273        1.6653372816        1.6629794792
 H          5.1017720056       -0.1948926370        0.8083343293
 H          4.9945531172       -2.4974269159       -0.0712563295
 H          2.8531140403       -3.6767824101       -0.2149436795
 H          0.0631926790       -2.9243587915        1.6606947732
 C          0.3786610336       -4.1065742727       -0.0705670692
 C         -0.7972566934       -4.5989797991       -0.8587361387
 C          0.4755276701       -4.2374279239       -1.5603214744
 H          1.0785332343       -5.0349745891       -1.9689325180
 H          0.5040955708       -3.3248395887       -2.1346112308
 H         -1.0649193422       -5.6419396591       -0.7767241226
 H         -1.6459273904       -3.9385454040       -0.9637107087
 H          0.8977802265       -4.8550286912        0.5200683918
