  62
        -98.94550886
 C         -2.2446933598       -0.9667431909        0.2052403399
 C         -1.5691188900       -0.2475031611       -0.8119955404
 C         -2.0004422804        1.1439564987       -1.0133663510
 C         -2.9390798807        1.6695791787       -0.2076818413
 C         -3.4602255511        3.0745710085       -0.2920825920
 C         -2.6684780215        4.0317440792        0.6083119776
 C         -1.1519153015        3.9371993296        0.4381902978
 H         -0.8001674312        2.9693418699        0.8043909583
 H         -0.7049467418        4.6975939000        1.0835074575
 C         -0.6574184314        4.1345410891       -1.0015148523
 H          0.2134141284        4.7932915594       -0.9813862425
 H         -1.4268462615        4.6286034886       -1.5970413225
 C         -0.2211510109        2.8408324790       -1.6916771716
 H          0.4388405992        2.2870368995       -1.0192738213
 H          0.3555672591        3.1039425387       -2.5826711117
 C         -1.3563369006        1.9088076084       -2.1352631513
 H         -0.9272989303        1.1569355582       -2.8041202209
 H         -2.1044066007        2.4779414479       -2.6921494116
 H         -2.9093283715        3.8083314796        1.6504612577
 H         -2.9958660418        5.0516469990        0.3956163971
 H         -3.4100050112        3.4099068981       -1.3264120222
 H         -4.5038017112        3.0709631583        0.0288867279
 O         -3.5115028505        0.9735002090        0.8091879389
 C         -3.1651787501       -0.3453858208        1.0509948195
 O         -3.7392430600       -0.8514585805        2.0384023297
 H         -0.2557145699       -1.0755843294        2.0734646101
 C          0.2950652603       -1.7420589395        1.4193318805
 C         -0.4039977393       -2.5617517701        0.5412105408
 C          0.3182737810       -3.4040409302       -0.2933728688
 C          1.7025954310       -3.3950377598       -0.2731783687
 C          2.3931523107       -2.5318134492        0.5587126410
 C          1.6772745103       -1.7020704790        1.4102963805
 N          2.3866241199       -0.7421163184        2.1940392402
 S          2.3153838795        0.7718489212        1.4405578595
 O          3.0456561991        1.6737529618        2.3075691991
 O          0.9490343494        1.1605891106        1.1636149692
 C          3.2238660697        0.4881884508       -0.0585161203
 C          4.5944023697        0.6611141613       -0.0274561403
 C          5.3289694898        0.4002529710       -1.1722904601
 C          4.6825813301       -0.0321711297       -2.3209835200
 C          3.3071452501       -0.2034108002       -2.3328228500
 C          2.5632638700        0.0556972201       -1.1913129502
 H          1.4922053700       -0.0808309102       -1.1757111502
 H          2.8003283103       -0.5440392107       -3.2213154499
 H          5.2537459402       -0.2377503699       -3.2126701998
 H          6.3989823798        0.5320275514       -1.1652046101
 H          5.0479572895        1.0017161219        0.8888640296
 H          1.9975260698       -0.6368359982        3.1225326201
 H          3.4699331707       -2.4835408788        0.5527935810
 H          2.2498856313       -4.0472485899       -0.9359454384
 H         -0.2040563187       -4.0404702507       -0.9887269586
 C         -1.9044456594       -2.4169096106        0.5185101106
 H         -2.2793075094       -2.5816767503        1.5426663706
 C         -2.6034242590       -3.4330868412       -0.3710698090
 C         -3.9500318890       -3.1387063420       -0.9599852993
 C         -2.7492487089       -3.2408174120       -1.8493557191
 H         -2.6605351686       -4.1069550322       -2.4885347687
 H         -2.3469590092       -2.3369575620       -2.2777360295
 H         -4.3719469093       -2.1608313920       -0.7764149897
 H         -4.6825632187       -3.9314276322       -0.9858721490
 H         -2.4453985486       -4.4492385110       -0.0230008086
 O         -0.6653360598       -0.7358316411       -1.5373545701
