  62
        -98.93624477
 C         -1.8588875489       -1.3088708912       -0.0751962382
 C         -3.0192266989       -1.2639276604        0.7388276317
 C         -4.2071365388       -0.5974492809        0.1790357511
 C         -4.1378012888       -0.0812415919       -1.0597423293
 C         -5.2026460388        0.6801979274       -1.7994992500
 C         -5.0355990287        2.1941146976       -1.5847787113
 C         -5.7348418887        2.7501837487       -0.3449549817
 H         -5.4318824987        3.7948463988       -0.2423338926
 H         -6.8148243387        2.7370448886       -0.5062228717
 C         -5.4270816588        2.0187214698        0.9643712789
 H         -5.6602987788        2.6960180605        1.7883235083
 H         -4.3592571588        1.7986496098        1.0215944791
 C         -6.2380754688        0.7260306100        1.1393325600
 H         -6.7252498988        0.7350073909        2.1165750100
 H         -7.0358267488        0.7028165894        0.3970899800
 C         -5.4234638688       -0.5735931101        1.0637671211
 H         -5.0454632989       -0.8244566692        2.0598429013
 H         -6.0867922889       -1.3930039003        0.7669902018
 H         -3.9651215387        2.4093661576       -1.5309027114
 H         -5.4296810587        2.7178465169       -2.4581229517
 H         -6.1926267288        0.3475860277       -1.5021262097
 H         -5.0613682388        0.4619548365       -2.8601715298
 O         -3.0073295088       -0.1465856526       -1.8120582592
 C         -1.8426316088       -0.7430473823       -1.3502766187
 O         -0.9022481888       -0.6888105330       -2.1649498588
 O         -3.0601836889       -1.7660755294        1.8944169222
 C         -0.6452426089       -2.0095834907        0.5107013724
 C          0.3121190511       -1.0355148902        1.1475978816
 C          0.8031271611       -1.2515615291        2.4297571117
 C          1.7001671712       -0.3648728486        3.0007312110
 C          2.1270470912        0.7522139508        2.3055146600
 C          1.6421502412        0.9767934997        1.0232306498
 C          0.7429731912        0.0870050592        0.4534580606
 H          0.3749973312        0.2650272184       -0.5463102196
 N          2.0742178812        2.1067660890        0.2986860289
 S          3.7257245612        2.2532371788        0.0485074188
 O          4.3590468312        2.6106837598        1.2927175585
 O          3.8699759813        3.1968404078       -1.0359889321
 C          4.2504225112        0.6282217183       -0.4617816398
 C          4.7088490312       -0.2692160809        0.4818854909
 C          5.0364450411       -1.5537297012        0.0782039820
 C          4.9027473211       -1.9159509024       -1.2530798977
 C          4.4465831912       -1.0007978432       -2.1895370384
 C          4.1091906812        0.2823900672       -1.7910922095
 H          3.7496700612        1.0224229566       -2.4883512702
 H          4.3427419312       -1.2839079740       -3.2245732682
 H          5.1530873711       -2.9177059726       -1.5636107468
 H          5.3907502811       -2.2680389606        0.8035181326
 H          4.8064486912        0.0532955200        1.5051319507
 H          1.5899447312        2.2131646083       -0.5818129812
 H          2.8275540812        1.4521554611        2.7315992494
 H          2.0692881511       -0.5435272478        3.9990328111
 H          0.4667449911       -2.1151078886        2.9844499725
 H         -1.0545917689       -2.6405925500        1.3151694429
 C          0.0420825011       -2.9383050516       -0.4823516768
 C          1.3600585211       -2.6431611322       -1.1258996371
 C          1.2655346511       -3.7057654913       -0.0754346861
 H          1.3487212711       -4.7400254415       -0.3719019753
 H          1.6889179211       -3.4847461604        0.8925171737
 H          1.4867523811       -2.9349465830       -2.1568849068
 H          1.8593864911       -1.7207683320       -0.8752714678
 H         -0.6810550989       -3.4658420821       -1.0968876964
