  62
        -98.93903292
 C         -2.4199352028       -0.9888886044       -0.1125102978
 C         -2.2683872093        0.4050365028       -0.3096212228
 C         -3.2583974380        1.2607293584        0.3633164224
 C         -4.2035852215        0.7021307753        1.1397173823
 C         -5.2963077763        1.4531309011        1.8423313470
 C         -6.5533858888        1.5523462899        0.9667497418
 C         -6.2767228778        2.0311466148       -0.4584408707
 H         -5.6823514091        1.2764993523       -0.9786538342
 H         -7.2381492765        2.0931028241       -0.9728834508
 C         -5.5618722406        3.3868141040       -0.5449837554
 H         -6.0534645232        3.9932964012       -1.3085944385
 H         -5.6593783553        3.9179661302        0.4025048981
 C         -4.0833257705        3.3010905687       -0.9281466742
 H         -3.9735419219        2.6900901597       -1.8276240157
 H         -3.7373038048        4.3089268026       -1.1726677659
 C         -3.1451173745        2.7445707386        0.1503535413
 H         -2.1174703067        2.9226411048       -0.1791020687
 H         -3.3025520496        3.2811093684        1.0880443583
 H         -7.2582650248        2.2309338637        1.4505874217
 H         -7.0160088245        0.5641456683        0.9122180279
 H         -5.5449081378        0.9180492867        2.7604067409
 H         -4.9398592609        2.4487356147        2.0991418331
 O         -4.2982766389       -0.6374028684        1.3350803825
 C         -3.4261259336       -1.5089155462        0.7092873786
 O         -3.6449923742       -2.7119284416        0.9557405358
 H          0.4914316189       -0.1976439138       -0.5875721895
 C          0.7240014751       -1.0948551736       -0.0333314834
 C         -0.2010213945       -2.1285696974       -0.0005778800
 C          0.0993642494       -3.2676684392        0.7372650434
 C          1.2963069902       -3.3658659667        1.4248839795
 C          2.2132636114       -2.3308201726        1.3959202515
 C          1.9195684927       -1.1855438550        0.6668435870
 N          2.8249474845       -0.1080034339        0.6574090833
 S          4.4612713305       -0.4693686672        0.4539638767
 O          4.6358434720       -1.4014913451       -0.6378930553
 O          4.9959413839       -0.8884860863        1.7259594099
 C          5.1172438522        1.1293549657        0.0221601954
 C          5.3285741319        1.4384181856       -1.3078885569
 C          5.8188505796        2.6930872454       -1.6344329896
 C          6.0841300708        3.6129159215       -0.6311751220
 C          5.8661636139        3.2879038702        0.6995659218
 C          5.3779719619        2.0347211575        1.0331600616
 H          5.2026354991        1.7348396732        2.0531036117
 H          6.0757148580        4.0053498266        1.4764785604
 H          6.4656729829        4.5885062192       -0.8880893813
 H          5.9916441229        2.9477903882       -2.6677190400
 H          5.1157254431        0.6895249996       -2.0539599044
 H          2.5291843102        0.6208439025        0.0218440542
 H          3.1508620354       -2.3957644520        1.9243014588
 H          1.5184589085       -4.2579008306        1.9913924916
 H         -0.6187147304       -4.0742792206        0.7777764376
 C         -1.5076743759       -2.0252985429       -0.7521429022
 H         -2.0297041791       -2.9847939219       -0.6392143971
 C         -1.2782398707       -1.7793844525       -2.2309927495
 C         -0.7985885972       -2.9112535454       -3.0867593955
 C         -2.2020306187       -2.4050290363       -3.2301230225
 H         -2.4612989459       -1.8429167127       -4.1147661223
 H         -3.0067148502       -3.0190348973       -2.8519984321
 H         -0.0907351100       -2.6990224037       -3.8733013691
 H         -0.6506926112       -3.8690574535       -2.6108725252
 H         -0.9077393999       -0.7877755938       -2.4533147659
 O         -1.3637717406        0.9356037117       -1.0089891363
