  62
        -98.93717605
 C         -0.9330579157       -1.2607924902       -0.1178635184
 C         -1.9907619016       -1.3085779483        0.8364436662
 C         -2.9077470736       -0.1670316872        0.8773131781
 C         -2.7126986069        0.8692001414        0.0438982871
 C         -3.5596253062        2.1089905829       -0.0484304203
 C         -4.8158209552        1.9432129201       -0.9152595294
 C         -5.9290199380        1.0953375367       -0.2984187400
 H         -6.1512787589        1.4620175982        0.7041064802
 H         -6.8227535885        1.2488543844       -0.9066253516
 C         -5.6241556932       -0.4081684187       -0.2427489451
 H         -4.8001236896       -0.6387448358       -0.9220539071
 H         -6.4930860225       -0.9694774081       -0.5939456570
 C         -5.2776441999       -0.9340395144        1.1502146445
 H         -6.1448264391       -0.8323180733        1.8065676351
 H         -5.0421904801       -1.9979962444        1.0658217113
 C         -4.0808963253       -0.2349554663        1.8078816731
 H         -4.3633248896        0.7652737606        2.1350482630
 H         -3.7803247871       -0.8190974454        2.6808686822
 H         -4.5232338759        1.5151068255       -1.8769430454
 H         -5.2144684176        2.9425593031       -1.1049534011
 H         -3.8477343002        2.4312285935        0.9524025950
 H         -2.9328940643        2.8795036107       -0.5003762914
 O         -1.6759269548        0.9038412079       -0.8284366321
 C         -0.7685203081       -0.1447504676       -0.9434638729
 O          0.1039791342        0.0797647225       -1.8038080020
 H          1.5912346738       -0.2611282595       -0.1468169636
 C          2.0294236849       -1.1020723200        0.3617795650
 C          1.3410763964       -2.3012470246        0.4443526323
 C          1.9550470211       -3.3784050231        1.0797961370
 C          3.2239108767       -3.2558459401        1.6122270603
 C          3.9056979828       -2.0544809230        1.5313019243
 C          3.3012610202       -0.9709924621        0.9055365078
 N          3.9410296059        0.2728000505        0.8669112421
 S          3.6572848621        1.3931651721       -0.3377360830
 O          3.6136347463        0.7808434960       -1.6438647603
 O          4.7124880638        2.3703394939       -0.1495068212
 C          2.1109593944        2.1645669280        0.0870384886
 C          1.7305107005        2.2392247108        1.4121362365
 C          0.5577371198        2.9023070892        1.7345200314
 C         -0.2027395470        3.4884314678        0.7347730990
 C          0.1949566664        3.4067039365       -0.5899834034
 C          1.3625810451        2.7374774804       -0.9204274578
 H          1.6929953944        2.6299665083       -1.9410505684
 H         -0.4010072442        3.8520986908       -1.3707476874
 H         -1.1125875234        4.0082710876        0.9913291457
 H          0.2397600645        2.9588749164        2.7633626283
 H          2.3419815147        1.7716892376        2.1662387418
 H          4.8938510706        0.2921254155        1.1978432514
 H          4.8937417996       -1.9516900214        1.9529537080
 H          3.6873370078       -4.0999528073        2.0997357869
 H          1.4227441574       -4.3146121543        1.1613963698
 C         -0.0453425517       -2.4913539843       -0.1318666499
 H         -0.5700086638       -3.1696999129        0.5608469758
 C          0.0811496098       -3.2703329663       -1.4421911466
 C         -0.7222588955       -2.9743537054       -2.6694811675
 C          0.7579922470       -2.7365107671       -2.6665572882
 H          1.3900078677       -3.4054991758       -3.2328281801
 H          1.0975436558       -1.7132356485       -2.6494956230
 H         -1.1194292605       -3.8025895655       -3.2381056176
 H         -1.3627585199       -2.1049466835       -2.6557966970
 H          0.2576541629       -4.3245141427       -1.2478311630
 O         -2.1634966839       -2.2763085994        1.6258405463
