  62
        -98.94125804
 C         -1.8937605437       -0.6171056950        0.0344693751
 C         -2.6251576017       -0.1126535461        1.1397151903
 C         -3.7099689680        0.8271961306        0.8283340631
 C         -3.9015232855        1.2069593444       -0.4478603551
 C         -4.9982061201        2.1177251719       -0.9165140236
 C         -6.2481083243        1.3208782601       -1.3157618639
 C         -6.6866785960        0.2948237820       -0.2707972184
 H         -5.9231509409       -0.4825863061       -0.1923010389
 H         -7.5937853054       -0.1838437970       -0.6459309601
 C         -6.9566543299        0.8821684570        1.1216090545
 H         -7.8887281307        0.4611961484        1.5043405844
 H         -7.0954359954        1.9614073469        1.0477076104
 C         -5.8731741846        0.5807419236        2.1587954065
 H         -5.6662129181       -0.4924813102        2.1706584593
 H         -6.2623299838        0.8490209648        3.1445922399
 C         -4.5456689513        1.3265402274        1.9732036506
 H         -3.9456060875        1.1667717153        2.8740079536
 H         -4.7360892293        2.3972313864        1.8734887464
 H         -6.0379834287        0.7919238636       -2.2483019079
 H         -7.0613689574        2.0249916250       -1.5007885876
 H         -4.6375162575        2.6714412233       -1.7851188498
 H         -5.2416755955        2.8230941457       -0.1241428923
 O         -3.1305335794        0.7648686265       -1.4721464069
 C         -2.1133922948       -0.1612950641       -1.2668045571
 O         -1.5008356074       -0.4711521296       -2.3040711328
 O         -2.3765377188       -0.4303924682        2.3339481922
 C         -0.7865936939       -1.6153966206        0.3232086405
 C          0.4823455661       -1.2010053424       -0.3781375238
 C          1.1444455301       -1.9886379601       -1.3095236637
 C          2.2968235789       -1.5278027077       -1.9230596586
 C          2.8161422107       -0.2835853326       -1.6192011858
 C          2.1680151441        0.5079218699       -0.6785359295
 C          1.0187480446        0.0414677059       -0.0598852144
 H          0.5095168810        0.6631016480        0.6668238000
 N          2.6877494177        1.7710906055       -0.3553301697
 S          4.3415692300        1.9500329119       -0.1997993830
 O          4.5142866259        3.0644635436        0.7060212524
 O          4.9424070889        2.1012875125       -1.5017779225
 C          4.9156084024        0.4384006186        0.5552533718
 C          5.8619103246       -0.3345120246       -0.0860416902
 C          6.2781088041       -1.5153178293        0.5080377278
 C          5.7404151831       -1.9022832541        1.7254591551
 C          4.7929662676       -1.1128359680        2.3594890036
 C          4.3752361319        0.0697778585        1.7713948240
 H          3.6438556847        0.7070996284        2.2422800716
 H          4.3756313874       -1.4149507494        3.3066626526
 H          6.0610286868       -2.8238392912        2.1849398065
 H          7.0165279791       -2.1294408947        0.0183957225
 H          6.2504924751        0.0025721498       -1.0332822761
 H          2.1860061178        2.2557679400        0.3730742316
 H          3.6976660577        0.0966241490       -2.1093328008
 H          2.7936146027       -2.1440433334       -2.6566930858
 H          0.7428430243       -2.9512050153       -1.5789765754
 H         -0.6164566538       -1.5204928622        1.4090510959
 C         -1.1721587863       -3.0659748390        0.0757569989
 C         -2.5984538941       -3.5126895175        0.1872057822
 C         -1.9181554525       -3.5047286439       -1.1472309471
 H         -1.6573651280       -4.4537770647       -1.5925749940
 H         -2.1936160142       -2.7479656563       -1.8646270940
 H         -2.8050452315       -4.4625382695        0.6571298636
 H         -3.3454178034       -2.7572330533        0.3844472516
 H         -0.4252828638       -3.7530734980        0.4612111771
