  62
        -98.94911855
 C         -1.3016120773       -1.5250869305        0.5591438084
 C         -2.2496084647       -1.1753615927       -0.4329433271
 C         -3.2019426698       -0.1230072290       -0.0593484970
 C         -3.1346545133        0.4422777835        1.1593296720
 C         -4.0173295819        1.5462136879        1.6736492767
 C         -3.5487311808        2.9458368020        1.2511183024
 C         -3.8000874002        3.3009901739       -0.2150612837
 H         -4.8407090087        3.0931728380       -0.4680565229
 H         -3.6479569266        4.3779068187       -0.3120954052
 C         -2.8718477416        2.5859534598       -1.2072429764
 H         -1.9915461499        2.2098848371       -0.6789236589
 H         -2.5045256207        3.3063195718       -1.9427803771
 C         -3.5287634034        1.4441473457       -1.9843419447
 H         -2.7641950938        0.9740503056       -2.6084695468
 H         -4.3009429145        1.8493765322       -2.6429181556
 C         -4.1598857729        0.3546422436       -1.1080657573
 H         -5.0765828588        0.7240265209       -0.6490541530
 H         -4.4043964633       -0.4972309914       -1.7476674937
 H         -2.4798494156        3.0366592395        1.4623804351
 H         -4.0765534528        3.6708114255        1.8755671752
 H         -3.9892298704        1.4874806745        2.7639165250
 H         -5.0436567501        1.3866501074        1.3419631593
 O         -2.2276289330        0.0575966260        2.0954963582
 C         -1.2623756825       -0.8916158973        1.8003263182
 O         -0.4358692386       -1.0862786373        2.7169092436
 O         -2.2935353323       -1.7020380648       -1.5751707590
 C         -0.1879460737       -2.5012237235        0.2298116514
 C          0.6786905505       -1.9302012107       -0.8701715720
 C          1.3111202962       -2.7083673634       -1.8320081613
 C          2.1047636311       -2.1135212143       -2.7982827155
 C          2.2996789644       -0.7437709128       -2.8214840881
 C          1.6736204320        0.0424454390       -1.8610447661
 C          0.8773577807       -0.5577461390       -0.9006235204
 H          0.3779919246        0.0672874524       -0.1781174020
 N          1.8191168270        1.4369391534       -1.8406587767
 S          1.8300361007        2.2613478135       -0.3864234372
 O          0.5139365428        2.2854291428        0.2002206381
 O          2.3941357814        3.5519773213       -0.7205792928
 C          2.9809891999        1.3565850827        0.6331236393
 C          4.3208829623        1.4639916519        0.3095368775
 C          5.2509664398        0.7422186093        1.0378726937
 C          4.8278080521       -0.0795453949        2.0721869419
 C          3.4820096756       -0.1731253985        2.3878751464
 C          2.5457423634        0.5506156825        1.6645256826
 H          1.4944781496        0.4866796438        1.8996320314
 H          3.1416226060       -0.8078136896        3.1906997095
 H          5.5493726019       -0.6475588194        2.6378411258
 H          6.2989847709        0.8193594411        0.7975301111
 H          4.6093793603        2.1237206615       -0.4925976351
 H          2.4856259579        1.8139997217       -2.4973845283
 H          2.9173110676       -0.2859879877       -3.5785663263
 H          2.5834778531       -2.7279961545       -3.5454909518
 H          1.1750429964       -3.7775581147       -1.8304141666
 H          0.4314610679       -2.5739335231        1.1370074279
 C         -0.7397566182       -3.8738928746       -0.0944195742
 C          0.0396132075       -5.1053053180        0.2546828819
 C         -1.1926076356       -4.7535401090        1.0309514086
 H         -2.0814761552       -5.3505673983        0.8934526962
 H         -1.0750780356       -4.3720486866        2.0351433397
 H         -0.0045837292       -5.9503531614       -0.4157843613
 H          0.9950079214       -4.9738369031        0.7399697398
 H         -1.3307364244       -3.8793187521       -1.0025598185
