  62
        -98.93551785
 C          2.3812236114        1.4087126053        0.0069833995
 C          3.1082706148        0.7179857902        1.0090613830
 C          3.9923982899       -0.3752222120        0.5709813789
 C          4.0570259685       -0.6822926736       -0.7376314199
 C          4.8849933261       -1.7059222215       -1.4862118606
 C          5.6306159701       -2.8051991227       -0.7347457589
 C          4.7307317708       -3.8479801198       -0.0716693355
 H          4.2612999892       -4.4491564815       -0.8545789826
 H          5.3585572653       -4.5121701269        0.5260911626
 C          3.6144975456       -3.2937263468        0.8104517896
 H          3.0419658683       -4.1410897819        1.1979617863
 H          2.9268133923       -2.6978892682        0.2057039818
 C          4.0759685921       -2.4608916781        2.0047056497
 H          3.1960892774       -2.2571933411        2.6212077876
 H          4.7798830780       -3.0396660644        2.6058968741
 C          4.7222673690       -1.1088890805        1.6590044302
 H          4.6665879917       -0.4723013384        2.5468209635
 H          5.7731038084       -1.2267120707        1.4059444891
 H          6.3105633182       -2.3692876616       -0.0088457445
 H          6.2465955720       -3.3247130019       -1.4737565521
 H          4.2060471778       -2.1651136925       -2.2121541547
 H          5.6122848163       -1.1289646962       -2.0681935016
 O          3.3303470668        0.0024673385       -1.6673395476
 C          2.4744238470        1.0427260295       -1.3341812180
 O          1.8817340772        1.5286304751       -2.3168456574
 H         -0.1167040803        1.2613232318       -1.2776984411
 C         -0.5988977053        1.3893920425       -0.3190907598
 C          0.0808499400        2.0444059990        0.6996276346
 C         -0.5483428285        2.1920384714        1.9295125325
 C         -1.8258779526        1.6976720069        2.1303122367
 C         -2.5003702302        1.0495781792        1.1111677512
 C         -1.8776367971        0.8922544247       -0.1203838967
 N         -2.5555070970        0.2303083344       -1.1646602360
 S         -3.0252714237       -1.3549296837       -0.8529320965
 O         -2.1473102788       -1.9855063780        0.1071109316
 O         -3.1243689420       -1.9901183401       -2.1490243836
 C         -4.6587132776       -1.1783205612       -0.1669107802
 C         -4.9430209767       -1.6968970565        1.0810940546
 C         -6.2232586243       -1.5481994292        1.5920200367
 C         -7.1904126207       -0.8879947436        0.8496420780
 C         -6.8890129165       -0.3752711931       -0.4035579979
 C         -5.6117889471       -0.5213580716       -0.9206893624
 H         -5.3358086149       -0.1414265294       -1.8901746995
 H         -7.6436907323        0.1374898493       -0.9777786530
 H         -8.1850875218       -0.7721996682        1.2502544802
 H         -6.4593213911       -1.9463407878        2.5657766232
 H         -4.1561285256       -2.1959251334        1.6238809918
 H         -2.0522471142        0.2694120510       -2.0406992982
 H         -3.4944826403        0.6613071058        1.2616363735
 H         -2.3014372822        1.8171783884        3.0916759111
 H         -0.0215242725        2.6809879875        2.7357643004
 C          1.4850077959        2.5434495586        0.4740698419
 H          1.8941238987        2.8309914531        1.4553401762
 C          1.5556329698        3.7698983180       -0.4260342527
 C          0.4025831244        4.2824129688       -1.2314063326
 C          0.8568454946        5.0335671651       -0.0184688583
 H          1.3684553597        5.9748670009       -0.1491384083
 H          0.2281458018        4.9879105289        0.8580425917
 H          0.6196253992        4.6868225640       -2.2084163729
 H         -0.5359521668        3.7535419640       -1.1806425740
 H          2.5365953007        3.8814668036       -0.8770116056
 O          3.0341759648        1.0174945122        2.2307555511
