  62
        -98.94340464
 C         -2.0711636018       -1.3775886377        0.0950344097
 C         -2.3051823676       -0.4901881428        1.1771676526
 C         -3.2392900544        0.6109734033        0.9243209772
 C         -3.8102572638        0.7328039789       -0.2880743188
 C         -4.8268377980        1.7668712208       -0.6905417009
 C         -4.2251983640        3.1121711540       -1.1183094141
 C         -3.6516819903        3.9570262236        0.0196616143
 H         -3.4667651237        4.9549302858       -0.3826712300
 H         -4.3980190041        4.0582143921        0.8082049895
 C         -2.3437057298        3.4123681685        0.6100976915
 H         -1.9099823096        2.6865741013       -0.0819099269
 H         -1.6289415580        4.2318108220        0.7180251291
 C         -2.4893013453        2.7572609048        1.9837157942
 H         -2.7959672638        3.5064675796        2.7171814965
 H         -1.5123566579        2.3712187128        2.2864942823
 C         -3.4903286788        1.5954517529        2.0267578241
 H         -3.3654496826        1.0699359655        2.9768118376
 H         -4.5100587160        1.9763063751        1.9707120521
 H         -3.4482220598        2.9262271293       -1.8631129894
 H         -5.0199704096        3.6842891774       -1.6023782317
 H         -5.3728354109        1.3490575737       -1.5391156511
 H         -5.5288672245        1.9254054426        0.1288590325
 O         -3.5358600007       -0.1177986789       -1.3095683040
 C         -2.6495600108       -1.1764817243       -1.1592389383
 O         -2.4871070153       -1.8390248806       -2.2006883128
 H          0.9166356802       -1.5843824490        1.7722436151
 C          1.1904583093       -1.7117249801        0.7334173109
 C          0.2480351984       -2.2060820770       -0.1582112317
 C          0.5982222004       -2.3311287496       -1.4979976742
 C          1.8701282194       -1.9887594628       -1.9214659632
 C          2.8142451574       -1.5149648605       -1.0270423741
 C          2.4666606459       -1.3665587009        0.3093085626
 N          3.4101180475       -0.8785900628        1.2274654616
 S          4.4159909191        0.3737467705        0.7695467176
 O          5.5013056878       -0.1419923726       -0.0271026618
 O          4.7945125665        1.0219708862        2.0050335936
 C          3.4095823028        1.4653636180       -0.2200486943
 C          2.2641589767        1.9889920597        0.3458520607
 C          1.4689324739        2.8334460686       -0.4108404411
 C          1.8291525841        3.1380019045       -1.7147036299
 C          2.9839594649        2.6069581273       -2.2675391266
 C          3.7833139910        1.7613389453       -1.5149987921
 H          4.6885657866        1.3257951687       -1.9058849317
 H          3.2621402457        2.8468511665       -3.2811155328
 H          1.2046794550        3.7937744850       -2.3007227967
 H          0.5699983691        3.2455998718        0.0188252265
 H          2.0077485324        1.7381310107        1.3629984685
 H          3.0484105995       -0.7426016335        2.1596587648
 H          3.8138842350       -1.2646234843       -1.3430033919
 H          2.1323187627       -2.0946884363       -2.9631188856
 H         -0.1385776624       -2.6750287849       -2.2061366151
 C         -1.1317752051       -2.5451191524        0.3522202493
 H         -1.0684514732       -2.6211423146        1.4464055309
 C         -1.6454200671       -3.8639602562       -0.1863433441
 C         -1.0509894962       -5.1373199020        0.3334997731
 C         -2.4504517464       -4.7550214700        0.7093125711
 H         -3.2714681474       -5.3095347088        0.2801749856
 H         -2.6336703279       -4.4184420229        1.7194992703
 H         -0.9078351521       -5.9569322040       -0.3535822506
 H         -0.2835231192       -5.0584518676        1.0888825489
 H         -1.9297651650       -3.8295598463       -1.2292613255
 O         -1.7673248323       -0.6238944830        2.3098185645
