  62
        -98.93604536
 C          2.1381777892        0.9322159032        0.0916636996
 C          2.6411845640        0.0102206941        1.0372706755
 C          2.9679948313       -1.3343552753        0.5340758868
 C          2.7453019401       -1.6240829843       -0.7596386414
 C          2.9437287735       -2.9352155576       -1.4792789497
 C          4.2035081093       -3.7464832962       -1.1508064530
 C          5.4504270958       -2.9053073728       -0.8409830156
 H          5.2685623130       -1.8607441579       -1.0994860378
 H          6.2777065662       -3.2555267487       -1.4608211707
 C          5.8860164408       -3.0002476497        0.6229934850
 H          6.9344517977       -2.7022204856        0.6974573136
 H          5.8184293222       -4.0425859964        0.9417116385
 C          5.0971213847       -2.1268875845        1.5974015090
 H          5.3311779515       -1.0732392097        1.4231114561
 H          5.4305954586       -2.3661747301        2.6099235941
 C          3.5684423257       -2.2801133999        1.5349093403
 H          3.1613549091       -1.9858316397        2.5062896545
 H          3.2815729111       -3.3101802325        1.3379083539
 H          4.3985653835       -4.3849079181       -2.0141563946
 H          4.0020250917       -4.4092813350       -0.3106075721
 H          2.9408217824       -2.6772581240       -2.5413125506
 H          2.0582295633       -3.5529422730       -1.2998438942
 O          2.2398515253       -0.7077496205       -1.6346845564
 C          1.9162820140        0.5794482303       -1.2387701147
 O          1.4551180161        1.2970598009       -2.1468365553
 O          2.7906420211        0.2907165425        2.2578164298
 C          1.7435829407        2.3246754278        0.5514536685
 C          0.2686423937        2.5234333492        0.3012132884
 C         -0.2683438263        3.6391518630       -0.3263827852
 C         -1.6282677447        3.7186843694       -0.5766160344
 C         -2.4803322752        2.6946538210       -0.2063955940
 C         -1.9549767393        1.5849430659        0.4398170000
 C         -0.5973303713        1.5113381323        0.6975138891
 H         -0.1943418304        0.6336719709        1.1902473209
 N         -2.8204280723        0.5194859720        0.8027168604
 S         -3.2155302668       -0.5077995308       -0.4852820317
 O         -2.2700438735       -1.6061677890       -0.5306366782
 O         -3.3618336819        0.2767110813       -1.6835277663
 C         -4.8088006064       -1.1087373193        0.0420327136
 C         -5.9065373448       -0.2894002977       -0.1364322595
 C         -7.1463128094       -0.7241223952        0.3032423155
 C         -7.2664729440       -1.9636754303        0.9140829598
 C         -6.1554172551       -2.7747764729        1.0865738139
 C         -4.9121843360       -2.3446300295        0.6492424990
 H         -4.0228935316       -2.9448897409        0.7554963536
 H         -6.2514561333       -3.7387786020        1.5597745770
 H         -8.2323252975       -2.3005414178        1.2560153129
 H         -8.0127431329       -0.0967849112        0.1690869789
 H         -5.7654570527        0.6609817868       -0.6238168413
 H         -2.4011838974       -0.0611634757        1.5186175921
 H         -3.5348155427        2.7330119539       -0.4235260189
 H         -2.0267235723        4.5875815791       -1.0779897010
 H          0.3811026838        4.4407998213       -0.6380950040
 H          1.9165837935        2.3359754208        1.6380611065
 C          2.6200270987        3.3753715234       -0.0952604991
 C          2.8744598726        4.6782769397        0.6006165665
 C          3.9671052886        3.6584208574        0.4969397845
 H          4.7934095447        3.8500908014       -0.1709298295
 H          4.2424581762        3.1091502260        1.3854927905
 H          2.9536389203        5.5741471201        0.0036726219
 H          2.4118799380        4.8281806717        1.5642458361
 H          2.5374210569        3.3756554629       -1.1764652397
