  62
        -98.93683027
 C          2.2684576998        0.6345780400       -0.0328676205
 C          3.1865136799        0.2569807411        0.9828737997
 C          4.1219031500       -0.8344039492        0.6696433806
 C          4.0642157298       -1.4197948703       -0.5383191688
 C          4.8799192198       -2.5721729308       -1.0688003579
 C          6.3817361299       -2.5817007404       -0.7547943381
 C          7.0386797398       -1.1951831003       -0.6898940294
 H          7.9241695497       -1.1918282009       -1.3282787096
 H          6.3549412097       -0.4382907407       -1.0782327601
 C          7.4779709100       -0.8083199390        0.7243083801
 H          8.2364918699       -0.0249368790        0.6540940393
 H          7.9466997101       -1.6753476185        1.1948139309
 C          6.3688561401       -0.2835405082        1.6352757898
 H          6.0444453800        0.7029619015        1.2931958989
 H          6.7890858002       -0.1527485972        2.6353395596
 C          5.1197482701       -1.1739874781        1.7393376308
 H          5.3846814302       -2.2282791581        1.7220081517
 H          4.6280814702       -0.9534106073        2.6905670806
 H          6.5542853200       -3.1009346195        0.1867907224
 H          6.8621197598       -3.1764216011       -1.5336572676
 H          4.4319967799       -3.5009462705       -0.7033178569
 H          4.7325189097       -2.5492575518       -2.1513771679
 O          3.1676885597       -1.0289094213       -1.4856296291
 C          2.2590627097       -0.0045635211       -1.2711269199
 O          1.5248596295        0.2124172079       -2.2581098400
 O          3.2202200701        0.8118281021        2.1128012892
 C          1.3223021098        1.7753884603        0.3006053585
 C         -0.0607922802        1.2885256806        0.6638704392
 C         -0.6150556400        1.5817029717        1.9043252590
 C         -1.8959913099        1.1638943520        2.2204600595
 C         -2.6470212100        0.4413243211        1.3108648603
 C         -2.1008153702        0.1389937099        0.0703390705
 C         -0.8203058902        0.5683226897       -0.2471344801
 H         -0.4027686204        0.3330947488       -1.2151136999
 N         -2.8450149403       -0.6185065410       -0.8540701687
 S         -4.3664266003       -0.0452879915       -1.2790423190
 O         -4.6490840405       -0.6304048527       -2.5715102184
 O         -4.4303086404        1.3962596186       -1.1988991003
 C         -5.4503040001       -0.7692666204       -0.0656376582
 C         -5.4502129201       -2.1436595703        0.0717114831
 C         -6.2924291199       -2.7220131394        1.0079203238
 C         -7.1181771098       -1.9214433687        1.7834478931
 C         -7.1100335599       -0.5435365089        1.6298490418
 C         -6.2686035701        0.0416203803        0.6963452612
 H         -6.2220280502        1.1083574002        0.5461698202
 H         -7.7531777399        0.0768375117        2.2331357613
 H         -7.7720633997       -2.3746129481        2.5117266737
 H         -6.3016258898       -3.7931496893        1.1304694648
 H         -4.7954447401       -2.7289074408       -0.5524440564
 H         -2.3177833604       -0.8516200917       -1.6841249885
 H         -3.6433091400        0.1093348312        1.5532010208
 H         -2.3137298698        1.4003545628        3.1870458694
 H         -0.0306843699        2.1341432124        2.6255234384
 H          1.7525042099        2.2482083512        1.1938007280
 C          1.2347963496        2.8195654693       -0.7968086025
 C          0.7858268395        4.2054156396       -0.4473641737
 C          2.2160806295        3.9510590993       -0.8162905236
 H          2.5762629994        4.3035091784       -1.7711638040
 H          2.9579110296        3.9820800801       -0.0314723238
 H          0.1578305094        4.7342845689       -1.1479266941
 H          0.5584059897        4.4109429105        0.5876365861
 H          0.9228192495        2.4150761184       -1.7513510720
