  62
        -98.94387180
 C         -1.8048352608       -1.1631714362        0.3578027565
 C         -2.0285749796       -0.2084264176       -0.6629894851
 C         -3.4296285029       -0.0294371661       -1.0735546922
 C         -4.3883152783       -0.7750793515       -0.4943589887
 C         -5.8571049648       -0.6575495754       -0.7796285134
 C         -6.5294817373        0.3406041147        0.1733671256
 C         -5.7984509137        1.6787955538        0.2817126745
 H         -6.3774810848        2.3125437094        0.9569009317
 H         -4.8242163839        1.5175413498        0.7490671677
 C         -5.6013506679        2.4041680465       -1.0566951123
 H         -6.2862147054        1.9989572666       -1.8024715073
 H         -5.8529953480        3.4585437111       -0.9243281015
 C         -4.1725095918        2.3527379218       -1.6014436904
 H         -3.4705769359        2.6695825358       -0.8253611410
 H         -4.0952028003        3.0705466588       -2.4226503647
 C         -3.7116292610        0.9919082784       -2.1390946160
 H         -2.7636105623        1.1467048013       -2.6630907410
 H         -4.4428126867        0.6123142781       -2.8558629282
 H         -6.5733299993       -0.1068772185        1.1689348187
 H         -7.5520844394        0.5096796857       -0.1686438016
 H         -5.9973211591       -0.3419614793       -1.8115483436
 H         -6.3132823691       -1.6395311626       -0.6437796557
 O         -4.1299639027       -1.6992451885        0.4658548439
 C         -2.8397287908       -1.9060908334        0.9257627641
 O         -2.7450536480       -2.7628059261        1.8277353913
 O         -1.1094079855        0.4599025539       -1.2046048592
 C         -0.3974124086       -1.4103207719        0.8702360263
 C          0.2044254320       -0.1261337772        1.3865382028
 C         -0.5294986038        0.6424507259        2.2871505711
 C         -0.0127174557        1.8148437967        2.8015972659
 C          1.2479191886        2.2476833244        2.4281712909
 C          1.9928263877        1.4862932400        1.5370578543
 C          1.4729839504        0.3026194760        1.0289569418
 H          2.0671879840       -0.2724702943        0.3395630629
 N          3.2923616621        1.8744037265        1.1763420614
 S          3.7922941413        1.7782844301       -0.4208716614
 O          4.9448545079        2.6539959175       -0.4803900150
 O          2.7237853979        2.0764208521       -1.3437299729
 C          4.3484423599        0.0999395786       -0.6245857733
 C          5.2379733541       -0.4183792385        0.2959395502
 C          5.7077604909       -1.7096366263        0.1176458931
 C          5.2894995978       -2.4533120914       -0.9756800599
 C          4.3979743063       -1.9168697823       -1.8926330074
 C          3.9206892089       -0.6270280164       -1.7175983395
 H          3.2165836999       -0.1738528543       -2.3979850426
 H          4.0715395613       -2.4962207674       -2.7419933949
 H          5.6569465335       -3.4580341831       -1.1138960960
 H          6.3990429708       -2.1321657569        0.8287520227
 H          5.5445783519        0.1927109576        1.1280914838
 H          3.6026687274        2.7385136800        1.5975507287
 H          1.6515645630        3.1673099554        2.8243173973
 H         -0.5963248195        2.4014237391        3.4954169396
 H         -1.5162727496        0.3054265932        2.5759312161
 H         -0.5053718997       -2.0979137736        1.7223344355
 C          0.4414566051       -2.0882203983       -0.1927539250
 C          1.5485661023       -3.0150888803        0.2080934420
 C          0.2918024411       -3.5651226365       -0.3946778572
 H          0.3269299097       -3.9531105567       -1.4014932271
 H         -0.4045753901       -4.0834271974        0.2486145156
 H          2.4512071375       -3.0277048448       -0.3835112199
 H          1.7105604265       -3.1672108996        1.2643966109
 H          0.5765288733       -1.4721856029       -1.0749449089
