  62
        -98.93387753
 C         -2.3306043327        0.1012131681       -0.1937657612
 C         -3.4831934704        0.3887899373       -0.9608154696
 C         -4.7258903959       -0.2867179972       -0.5528953591
 C         -4.7030812182       -1.1300998642        0.4936386675
 C         -5.8326790565       -1.9559104104        1.0572249498
 C         -7.2056075648       -1.2829115601        1.1905636996
 C         -7.1643009781        0.2187639181        1.5089189199
 H         -7.8082785094        0.4174773709        2.3676333746
 H         -6.1512273413        0.5150554796        1.7864309762
 C         -7.6496790184        1.0886869420        0.3469080858
 H         -7.9429097886        2.0657739017        0.7383259123
 H         -8.5409310081        0.6293047479       -0.0861047930
 C         -6.6254673564        1.3343376308       -0.7603213465
 H         -7.1284290692        1.8643887871       -1.5727425969
 H         -5.8324908698        1.9912571844       -0.3925137409
 C         -5.9563465459        0.0747863173       -1.3344498464
 H         -6.6573880079       -0.7543353911       -1.3894193767
 H         -5.6124964407        0.3089713955       -2.3456406246
 H         -7.7771174014       -1.4357976087        0.2762325689
 H         -7.7378146581       -1.8089007180        1.9849125186
 H         -5.4844268147       -2.2758987672        2.0421554421
 H         -5.9336905792       -2.8561062133        0.4440005405
 O         -3.5648112728       -1.3837423866        1.2010431824
 C         -2.3584953303       -0.7790468234        0.8862144594
 O         -1.4116194451       -1.1039473572        1.6275720075
 O         -3.4726577236        1.1651113457       -1.9538948020
 C         -1.0202833081        0.7741656675       -0.5545738908
 C          0.0456098704       -0.2536763501       -0.8427861310
 C         -0.2467072953       -1.3057045640       -1.7081317477
 C          0.7057368092       -2.2590588781       -2.0091772057
 C          1.9780139504       -2.1750543380       -1.4705471322
 C          2.2811500000       -1.1288377646       -0.6087486808
 C          1.3173323050       -0.1783607646       -0.2990103571
 H          1.5837526512        0.6202985341        0.3726636413
 N          3.5557363496       -1.0206700681       -0.0298339642
 S          4.2024326089        0.5244934391        0.1861472043
 O          3.7382157458        1.0589174754        1.4414695577
 O          3.9508349233        1.3323039921       -0.9857789730
 C          5.9398379398        0.1366176481        0.3035368603
 C          6.7229920583        0.2017496563       -0.8337311286
 C          8.0660260851       -0.1282765904       -0.7431016995
 C          8.6000795552       -0.5184106100        0.4758683934
 C          7.8021174893       -0.5776279558        1.6088376840
 C          6.4585135866       -0.2482275670        1.5254493775
 H          5.8023903834       -0.2708062599        2.3799992408
 H          8.2214334939       -0.8777717237        2.5555732764
 H          9.6455032654       -0.7747345483        0.5440958275
 H          8.6897122443       -0.0791032033       -1.6210828934
 H          6.2668944982        0.5202137138       -1.7573256069
 H          4.2285988941       -1.6572141569       -0.4345358073
 H          2.7246746041       -2.9172135744       -1.7091116112
 H          0.4601549328       -3.0708157820       -2.6775068836
 H         -1.2373161339       -1.3659504488       -2.1386799102
 H         -1.2197415011        1.3253638824       -1.4866095858
 C         -0.6258236462        1.7671552538        0.5183275726
 C          0.2249350429        2.9520614710        0.1750156647
 C         -1.2252863578        3.1400761709        0.5019147707
 H         -1.4873102736        3.6001684829        1.4428603300
 H         -1.9045453997        3.3738646893       -0.3049597089
 H          0.9668260736        3.2761987800        0.8900549262
 H          0.5371095000        3.0616358990       -0.8529530425
 H         -0.4761129791        1.2972230630        1.4849108818
