  62
        -98.94628062
 C         -1.3677754702       -1.2291305412        0.5198085039
 C         -1.6432524634       -0.4049018942       -0.5989572369
 C         -2.4053666969        0.8184620805       -0.3114502942
 C         -2.7024817032        1.1410087855        0.9598885558
 C         -3.4353692885        2.3746366733        1.4134257582
 C         -4.9638209854        2.2448613773        1.3621590817
 C         -5.5686533719        2.2603270339       -0.0421994277
 H         -6.6475183280        2.3797563104        0.0755424236
 H         -5.2027317058        3.1327590962       -0.5844245670
 C         -5.2986723638        0.9903228366       -0.8612423024
 H         -4.9824513349        0.1862278369       -0.1926914106
 H         -6.2248008936        0.6622447304       -1.3385677405
 C         -4.2544890356        1.1567651773       -1.9654016673
 H         -4.1200064526        0.1894002426       -2.4557143724
 H         -4.6222310618        1.8640032693       -2.7120155386
 C         -2.8811019154        1.6350019264       -1.4747245839
 H         -2.1629946651        1.4984323887       -2.2860733113
 H         -2.9250478589        2.6917716733       -1.2120207019
 H         -5.2541725346        1.3246794618        1.8746069508
 H         -5.3814440333        3.0832689758        1.9245121768
 H         -3.1394832311        2.5498879694        2.4502249602
 H         -3.1244882804        3.2309449166        0.8138615311
 O         -2.3316129460        0.3682081300        2.0166527252
 C         -1.6861561647       -0.8419867421        1.8214475186
 O         -1.4364503517       -1.4646849766        2.8753593208
 O         -1.2826267899       -0.6684994584       -1.7728428789
 C         -0.6320408169       -2.5481927965        0.3422850921
 C          0.7862586551       -2.2447442897       -0.0756274812
 C          1.3389813862       -2.6180702285       -1.2921366893
 C          2.6327185888       -2.2435292864       -1.6166329415
 C          3.3986275151       -1.4973777587       -0.7403323516
 C          2.8555571029       -1.1274837847        0.4840633098
 C          1.5618171422       -1.5006656716        0.8063886901
 H          1.1353336125       -1.2055582954        1.7574613098
 N          3.6215108434       -0.3493474058        1.3775313224
 S          4.1919753846        1.0982676478        0.7530984152
 O          5.3821548578        0.8455713798       -0.0190703015
 O          4.3522643788        1.9747509198        1.8918878850
 C          2.8873857356        1.6816031570       -0.3146231256
 C          1.6894116972        2.0485740351        0.2656205418
 C          0.6495342912        2.4654270637       -0.5479575684
 C          0.8224362475        2.5009150132       -1.9227628164
 C          2.0291392574        2.1250833705       -2.4906336780
 C          3.0736784628        1.7085656046       -1.6811729051
 H          4.0281184532        1.4078283966       -2.0810894319
 H          2.1565079730        2.1503373765       -3.5607355581
 H          0.0086062685        2.8222100377       -2.5529404548
 H         -0.2940257145        2.7472881165       -0.1082439372
 H          1.5862470336        2.0134016869        1.3391805443
 H          3.1537235445       -0.1847981779        2.2577176448
 H          4.4032460026       -1.1897841613       -0.9814860894
 H          3.0485910715       -2.5342056901       -2.5690453532
 H          0.7540264543       -3.1898492243       -1.9928078040
 H         -0.5971390648       -3.0116658112        1.3385402779
 C         -1.3724658275       -3.4712317722       -0.6000097806
 C         -1.1129101228       -4.9458929589       -0.5485285590
 C         -2.4124211944       -4.3953334218       -0.0446636291
 H         -3.3072940160       -4.5715932199       -0.6224942985
 H         -2.5806999654       -4.3746765642        1.0226066054
 H         -1.1169404963       -5.5040509565       -1.4722750247
 H         -0.3978823867       -5.3020096105        0.1777608134
 H         -1.5720553333       -3.0202622753       -1.5641395948
