  62
        -98.94941321
 C         -1.3638353234       -1.5928098866        0.2713603577
 C         -1.6207087199       -0.6033862352        1.2506087618
 C         -2.7945182106        0.2465232280        1.0213028626
 C         -3.5472544257        0.0430863101       -0.0749046188
 C         -4.7560056719        0.8504345940       -0.4481436642
 C         -4.3893403194        2.0203501541       -1.3707088719
 C         -3.2198068739        2.8684243564       -0.8694617181
 H         -2.2963717756        2.2847452983       -0.9074009673
 H         -3.0941654649        3.6956318316       -1.5722924048
 C         -3.3979786336        3.4292002685        0.5481911532
 H         -3.0787113088        4.4735774618        0.5493453596
 H         -4.4523833952        3.4096269875        0.8284090675
 C         -2.5689756988        2.7116020587        1.6153281207
 H         -1.5387666499        2.6176512061        1.2598564295
 H         -2.5529486250        3.3363144743        2.5128904644
 C         -3.0765513280        1.3236397033        2.0296590459
 H         -4.1437178830        1.3744578854        2.2567439492
 H         -2.5446481212        1.0311587828        2.9398741588
 H         -4.1231915356        1.6191688719       -2.3514637770
 H         -5.2714154653        2.6528359754       -1.4900532438
 H         -5.4562723628        0.1958961968       -0.9704652999
 H         -5.2295273692        1.2236962161        0.4578885310
 O         -3.2692706835       -0.9135876397       -0.9968648270
 C         -2.1489036123       -1.7238420782       -0.8735549586
 O         -1.9768233577       -2.5065469099       -1.8274907062
 O         -0.8957036172       -0.4381924521        2.2698074454
 C         -0.1214760151       -2.4520504163        0.4159363133
 C          0.9050668398       -2.0570784370       -0.6197540311
 C          1.7431552042       -2.9608673516       -1.2607327670
 C          2.6807383098       -2.5135950274       -2.1764527780
 C          2.8217786715       -1.1659678743       -2.4557451027
 C          1.9902035493       -0.2536658443       -1.8160471873
 C          1.0430910877       -0.7081441234       -0.9142422254
 H          0.3866822593        0.0077879767       -0.4465415367
 N          2.0830681189        1.1241290036       -2.0608936320
 S          1.8143164480        2.2068963455       -0.8126450952
 O          0.4112983709        2.2749704923       -0.4939033091
 O          2.4133698600        3.4385829219       -1.2822586869
 C          2.7660158909        1.5654688678        0.5530515847
 C          2.1594249400        0.9504132177        1.6284526780
 C          2.9585618897        0.4230293784        2.6320912903
 C          4.3379837585        0.5184381993        2.5464905127
 C          4.9323020716        1.1474511621        1.4624216834
 C          4.1409471875        1.6729996202        0.4555403737
 H          4.5622060993        2.1807750603       -0.3969910923
 H          6.0055756778        1.2264979520        1.3992483501
 H          4.9518529142        0.1028360635        3.3299554377
 H          2.4871710041       -0.0630741852        3.4714769290
 H          1.0840511171        0.8783578948        1.6824306007
 H          2.8550286956        1.4061928988       -2.6461652083
 H          3.5572046386       -0.8221904233       -3.1666691328
 H          3.3190572889       -3.2266626396       -2.6755967367
 H          1.6572093608       -4.0142212584       -1.0499558285
 H          0.2943019578       -2.1928794320        1.4024131938
 C         -0.4590692198       -3.9273155249        0.4053183364
 C          0.3719918533       -4.8972795750        1.1897336160
 C         -1.0102555195       -4.5506192538        1.6518905629
 H         -1.7909046892       -5.2901569321        1.5563689143
 H         -1.1168062134       -3.9148591899        2.5188743886
 H          0.5404016682       -5.8811896182        0.7785602360
 H          1.2055609860       -4.5032670417        1.7512029809
 H         -0.8736189193       -4.2534218121       -0.5413825772
