  62
        -98.94359731
 C          1.7248617597        1.0942933791       -0.5623607115
 C          1.8659130700        0.0738478000        0.4093381094
 C          3.2366290001       -0.1674941996        0.8790297292
 C          4.2495600600        0.5804098499        0.4051956582
 C          5.6956561102        0.4697634802        0.8066936178
 C          6.4711621299       -0.6211531705        0.0554520485
 C          6.1337677699       -2.0563677501        0.4615269800
 H          6.8978501298       -2.7008367306        0.0221753603
 H          6.2105651603       -2.1533857492        1.5449471700
 C          4.7530638398       -2.5385889505       -0.0049620192
 H          4.3850592295       -1.8792081512       -0.7943388897
 H          4.8443545096       -3.5369540009       -0.4386699483
 C          3.7018407301       -2.6191632995        1.1020097612
 H          3.9967197703       -3.3756752688        1.8325695018
 H          2.7557733600       -2.9322201798        0.6537399618
 C          3.4601244304       -1.2959714388        1.8399882501
 H          2.5553274506       -1.3990966982        2.4438275505
 H          4.2985675106       -1.0743183382        2.4999872496
 H          6.3005064495       -0.4956200715       -1.0162908515
 H          7.5340944499       -0.4531115804        0.2439880481
 H          6.1549976501        1.4348628100        0.5820063768
 H          5.7657323805        0.2938382512        1.8805413879
 O          4.0653505298        1.5710179891       -0.5089098827
 C          2.8075140596        1.8420869586       -1.0233360225
 O          2.7831731294        2.7646372579       -1.8641113534
 H         -2.1513213903        0.4436830593       -0.5063958097
 C         -1.8126682000        1.2002351099        0.1789996595
 C         -0.5792097200        1.8020894197       -0.0052909314
 C         -0.1829853997        2.7991477805        0.8828720175
 C         -0.9980753594        3.1696776415        1.9343404175
 C         -2.2215664193        2.5516902317        2.1271483784
 C         -2.6277608197        1.5573950009        1.2452577894
 N         -3.8332584596        0.8817393412        1.4475744604
 S         -4.6329147700        0.0426143901        0.2560737715
 O         -4.7243680404        0.8034543490       -0.9687452892
 O         -5.8959232499       -0.3155376893        0.8658739122
 C         -3.6607741002       -1.4257823402       -0.0090885475
 C         -3.0639803799       -2.0472045492        1.0690110529
 C         -2.3094942900       -3.1880760594        0.8490064037
 C         -2.1693713304       -3.6887608806       -0.4359337959
 C         -2.7828968707       -3.0586373716       -1.5074274263
 C         -3.5375328906       -1.9165907113       -1.2939300671
 H         -4.0219768008       -1.3864245120       -2.0988361374
 H         -2.6711606611       -3.4491179625       -2.5065553660
 H         -1.5747674805       -4.5730065408       -0.6040871053
 H         -1.8250125897       -3.6771125187        1.6786124039
 H         -3.1815112695       -1.6285645783        2.0544842525
 H         -4.4286675894        1.2219605719        2.1856670003
 H         -2.8531975991        2.8317792525        2.9561857284
 H         -0.6782008591        3.9449772621        2.6144534867
 H          0.7775981902        3.2755190903        0.7382573868
 C          0.3515585796        1.4107100287       -1.1269617214
 H          0.4828592294        2.2829874481       -1.7839226622
 C         -0.1507614507        0.2455026579       -1.9541023401
 C         -1.1305017811        0.4760152870       -3.0636619200
 C          0.2910823688        0.1232110766       -3.3801256602
 H          0.5037995886       -0.8599501738       -3.7718476894
 H          0.9380193087        0.8972030162       -3.7674225411
 H         -1.8958042312       -0.2648444632       -3.2379959591
 H         -1.4571044911        1.4898308068       -3.2403914309
 H         -0.2380484906       -0.6686866515       -1.3773341393
 O          0.9046172701       -0.5977637696        0.8629464503
