  62
        -98.94572275
 C         -2.4965643930       -1.1339587271       -0.0347491850
 C         -3.0981442302       -0.2458442339        0.8884143932
 C         -3.6084000598        1.0109890087        0.3316029491
 C         -3.4847204832        1.2553754245       -0.9858676596
 C         -3.9587429831        2.4892826643       -1.7045081609
 C         -2.9629683433        3.6562860124       -1.6503679967
 C         -2.8511319829        4.3523692308       -0.2933096390
 H         -2.2903645815        5.2755233751       -0.4520792069
 H         -3.8463836883        4.6298400339        0.0556324056
 C         -2.1379229438        3.5246749824        0.7854109862
 H         -1.5714484310        2.7185141221        0.3104930027
 H         -1.4100091028        4.1524476638        1.3055503527
 C         -3.0674636726        2.9305187039        1.8445955161
 H         -2.4629644616        2.3380472864        2.5366749797
 H         -3.5345108904        3.7373984995        2.4134689289
 C         -4.1710961731        2.0242942051        1.2823430861
 H         -4.9365600059        2.6243699924        0.7916897890
 H         -4.6272512077        1.4835871375        2.1151567161
 H         -1.9780332602        3.2907869474       -1.9527185856
 H         -3.2845017048        4.3950097478       -2.3881304567
 H         -4.0994794325        2.2058371033       -2.7496330492
 H         -4.9183453041        2.8078162283       -1.2967452126
 O         -2.9059179962        0.3736538844       -1.8424783790
 C         -2.3617639198       -0.8196908018       -1.3876445412
 O         -1.8111663191       -1.4995165770       -2.2733435333
 O         -3.1945714352       -0.4879162143        2.1227556972
 C         -1.8784572509       -2.4204277156        0.4877362196
 C         -0.3800790280       -2.3107698290        0.3439619533
 C          0.4024009759       -3.2027978743       -0.3753378421
 C          1.7640603183       -2.9875959160       -0.5095755656
 C          2.3719787002       -1.8882823389        0.0683426303
 C          1.5985986305       -0.9949262419        0.7987414717
 C          0.2394736057       -1.2159375329        0.9365019271
 H         -0.3629858336       -0.5128218666        1.4997632288
 N          2.2098540007        0.1388820409        1.3817844192
 S          2.7814516531        1.2742383358        0.2742782415
 O          2.8213063100        2.5275079307        0.9967910311
 O          2.0033598982        1.2602121931       -0.9445237535
 C          4.4455314126        0.7322925124       -0.0472571088
 C          4.8086395558        0.3357831715       -1.3190815106
 C          6.1096408969       -0.0889357169       -1.5412999363
 C          7.0176153495       -0.1099590512       -0.4935400245
 C          6.6367388419        0.2932530437        0.7779354821
 C          5.3386047185        0.7203868522        1.0066188187
 H          5.0008328491        1.0474017465        1.9757322929
 H          7.3457809262        0.2754721907        1.5897751736
 H          8.0283259168       -0.4428176953       -0.6693839238
 H          6.4073608688       -0.4027175728       -2.5289160233
 H          4.0653683594        0.3628311817       -2.1000626383
 H          1.6048587973        0.6072124938        2.0430782127
 H          3.4303586288       -1.7154349120       -0.0401819692
 H          2.3593180360       -3.6851719373       -1.0786399172
 H         -0.0556146951       -4.0575337647       -0.8448249258
 H         -2.1177943645       -2.4424398359        1.5611859964
 C         -2.4784841149       -3.6412405960       -0.1725047706
 C         -2.4160566967       -4.9685930810        0.5208026526
 C         -3.7218849162       -4.2427312325        0.4082227414
 H         -4.4714447791       -4.6268292749       -0.2671268032
 H         -4.1303651988       -3.7809575175        1.2953350690
 H         -2.2706721777       -5.8558228228       -0.0763120923
 H         -1.9376915567       -5.0037555085        1.4877998694
 H         -2.3911827915       -3.6201439442       -1.2523788311
