  62
        -98.93800220
 C         -1.5996823807       -1.6172464949        0.2681100460
 C         -1.7790527735       -0.4547757113        1.0577026288
 C         -2.8746442017        0.4593624369        0.6841957645
 C         -3.6274806249        0.1553448976       -0.3895894816
 C         -4.7955490523        0.9133154133       -0.9651012800
 C         -4.3721082680        2.1645790969       -1.7481908462
 C         -3.3269755623        3.0250084059       -1.0449883813
 H         -2.4414687569        2.4166973465       -0.8571173146
 H         -3.0390950141        3.8261889174       -1.7308087530
 C         -3.7900249762        3.6663274685        0.2612301740
 H         -4.6920543567        4.2526648260        0.0732850572
 H         -3.0090392457        4.3610792396        0.5807585567
 C         -4.0653213696        2.7023377352        1.4187297383
 H         -5.0427378321        2.2369081728        1.3212902421
 H         -4.0973628168        3.2967915813        2.3363358953
 C         -2.9987148225        1.6316545955        1.6274047091
 H         -2.0094507170        2.1019373976        1.6613106233
 H         -3.1393225951        1.1905627088        2.6213898784
 H         -3.9535637837        1.8412108570       -2.7044898936
 H         -5.2632845366        2.7597016743       -1.9551331241
 H         -5.3029631266        0.2296510008       -1.6494414664
 H         -5.4966375261        1.1723311667       -0.1771674279
 O         -3.3806695343       -0.9445256809       -1.1551717399
 C         -2.3710038433       -1.8461935875       -0.8709457987
 O         -2.2847640183       -2.7761915203       -1.6957903048
 O         -1.0557849489       -0.1913756340        2.0564576292
 C         -0.4973592500       -2.5713414550        0.6978713024
 C          0.7667046525       -2.2422314722       -0.0574874133
 C          0.9336206631       -2.5809044113       -1.3958114215
 C          2.0906590076       -2.2272590205       -2.0670935929
 C          3.1003306453       -1.5315553676       -1.4238664669
 C          2.9346578456       -1.1754050421       -0.0921324302
 C          1.7752045179       -1.5343942176        0.5814807199
 H          1.6417124317       -1.2419455328        1.6143228917
 N          3.9520953413       -0.4545197404        0.5696543767
 S          4.3084369319        1.0750957313       -0.0088856347
 O          4.7952042714        0.9630015395       -1.3596264999
 O          5.2161904425        1.6508671816        0.9560519179
 C          2.7578404786        1.9556617794        0.0131788021
 C          1.8635028399        1.7640580324       -1.0210073639
 C          0.6418255772        2.4155611180       -0.9758196504
 C          0.3381772992        3.2427113585        0.0942100427
 C          1.2441158098        3.4188405640        1.1281719176
 C          2.4647639056        2.7651760762        1.0922069140
 H          3.2006666785        2.8779794599        1.8721994636
 H          1.0011839107        4.0592366478        1.9609294105
 H         -0.6108914397        3.7546397345        0.1189178800
 H         -0.0683876387        2.2738072084       -1.7754886610
 H          2.1352653337        1.1205800408       -1.8421051539
 H          3.8092585967       -0.4005784608        1.5688692962
 H          4.0013062693       -1.2396783778       -1.9387540420
 H          2.2095435270       -2.4975161619       -3.1056281466
 H          0.1396964733       -3.0998612305       -1.9102013341
 H         -0.3178455799       -2.3412613139        1.7569061798
 C         -0.8701473984       -4.0346082477        0.5848115415
 C         -0.0656694124       -5.0435534805        1.3465259992
 C         -1.4690630622       -4.7303026836        1.7686699779
 H         -2.2383532496       -5.4679654998        1.5965428830
 H         -1.6136120860       -4.1528643571        2.6703009482
 H          0.1323476719       -5.9986317649        0.8850416666
 H          0.7425134789       -4.6772931451        1.9616989512
 H         -1.2393019865       -4.3182732061       -0.3912586413
