  62
        -98.94393133
 C         -1.8231836097       -0.5269060695       -0.9827861899
 C         -1.9692344296       -0.1244004297        0.3666543502
 C         -3.3428965396       -0.1373338497        0.8876857502
 C         -4.3553497897       -0.5445810195        0.1009163102
 C         -5.8045035497       -0.6343230094        0.4959369002
 C         -6.5668611195        0.6921858807        0.3738281405
 C         -6.2269976694        1.7377261804        1.4367160307
 H         -6.9823667494        2.5229193305        1.3666553709
 H         -6.3146625994        1.2894193403        2.4268876906
 C         -4.8387952794        2.3736619304        1.2788122407
 H         -4.4641199294        2.1854368305        0.2701416007
 H         -4.9192918093        3.4569232903        1.3936977109
 C         -3.8001129694        1.8875807501        2.2898506206
 H         -2.8471320093        2.3731312601        2.0645684307
 H         -4.0995982193        2.1867389699        3.2968643307
 C         -3.5701950695        0.3705502801        2.2794675903
 H         -4.4151403195       -0.1413811299        2.7398835003
 H         -2.6704981995        0.1551296999        2.8619222802
 H         -6.3845888496        1.1093320608       -0.6191515594
 H         -7.6324389896        0.4633473207        0.4479455305
 H         -6.2657572597       -1.3596799593       -0.1777520199
 H         -5.8838366796       -1.0088901196        1.5168603502
 O         -4.1670547197       -0.9530829492       -1.1822577399
 C         -2.9067655598       -0.9407235492       -1.7578101900
 O         -2.8805624399       -1.3231574590       -2.9453348300
 O         -1.0091250696        0.2287848201        1.0997031202
 C         -0.4495326897       -0.5397496495       -1.6298927500
 C          0.4483818202       -1.5126587497       -0.9042996202
 C          0.0150240601       -2.8269204297       -0.7435262604
 C          0.8066128901       -3.7580018299       -0.1010938406
 C          2.0455674001       -3.3972654200        0.4007555394
 C          2.4895656902       -2.0909499501        0.2444972396
 C          1.6952721903       -1.1605255399       -0.4137025402
 H          2.0588160503       -0.1544169599       -0.5292822400
 N          3.7585748003       -1.7024654302        0.7047665296
 S          3.9223739004       -0.2835348704        1.5865068199
 O          5.2059861004       -0.4255527506        2.2432223598
 O          2.7917297905       -0.0552712905        2.4538828300
 C          4.0532968105        1.0018196498        0.3631247001
 C          5.0291239604        0.8861013899       -0.6072910699
 C          5.1621746205        1.8973690001       -1.5450230598
 C          4.3265830606        3.0031204601       -1.4921954995
 C          3.3532512806        3.1048259400       -0.5093516095
 C          3.2123817106        2.0949183299        0.4298187504
 H          2.4593021306        2.1237025998        1.2021073704
 H          2.7011678007        3.9631786101       -0.4715162593
 H          4.4312763606        3.7904051802       -2.2223165594
 H          5.9149470504        1.8220517901       -2.3129577798
 H          5.6619626504        0.0145891598       -0.6092677501
 H          4.2872902002       -2.4472566604        1.1368826795
 H          2.6633233701       -4.1222854302        0.9091957992
 H          0.4563952000       -4.7726930298        0.0158692792
 H         -0.9552516299       -3.1062813695       -1.1321839204
 H         -0.6023948798       -0.9223243593       -2.6497948400
 C          0.1142524204        0.8626251305       -1.7158968897
 C          1.0960243404        1.2081783406       -2.7937752797
 C         -0.3028648396        1.7420645307       -2.8545875796
 H         -0.4656900795        2.7916881407       -2.6617318294
 H         -0.9825596897        1.3219435009       -3.5819615496
 H          1.8980893204        1.8917396405       -2.5605250496
 H          1.3687067203        0.4263807707       -3.4862367299
 H          0.2333089005        1.3264309603       -0.7433055397
