  62
        -98.94998755
 C         -2.0089121710       -0.8767121457       -0.2367787307
 C         -2.7527933896        0.0625859855        0.5145961691
 C         -2.8132416973        1.4233195656       -0.0346304209
 C         -2.1790541567        1.6968142445       -1.1890748908
 C         -2.1624827844        3.0366129745       -1.8657500408
 C         -0.9457993032        3.8730374725       -1.4500622106
 C         -0.7331451333        3.9516007922        0.0617954994
 H         -0.4379833949        2.9693055618        0.4384549495
 H          0.1152846277        4.6183681809        0.2353809495
 C         -1.9475873226        4.4596225742        0.8515483792
 H         -1.5979146516        5.1724772037        1.6015014292
 H         -2.6273998416        4.9946916053        0.1867052091
 C         -2.7192199445        3.3721864355        1.6023549591
 H         -3.3781731938        3.8602772765        2.3260088390
 H         -2.0137497356        2.7538798243        2.1645229992
 C         -3.5903790558        2.4497356468        0.7394570690
 H         -4.2142832748        3.0494556578        0.0730205388
 H         -4.2462428468        1.8864936379        1.4100657588
 H         -1.0682373515        4.8800844927       -1.8545217707
 H         -0.0504431038        3.4327872211       -1.8951815405
 H         -2.1251753345        2.8719450744       -2.9443409708
 H         -3.0804734736        3.5680992560       -1.6217495210
 O         -1.4605664081        0.7728254634       -1.8750027407
 C         -1.3320803902       -0.5241694868       -1.4026737806
 O         -0.6059034913       -1.2549176180       -2.1046767605
 O         -3.3464018003       -0.2277369435        1.5895454990
 C         -1.8637173734       -2.2980277759        0.2787596193
 C         -0.4032227539       -2.5896093583        0.5219309996
 C          0.2434900043       -3.7386460393        0.0860811197
 C          1.5987616940       -3.9076539415        0.3145377899
 C          2.3375574855       -2.9333835827        0.9606142500
 C          1.6958366273       -1.7859234016        1.4130857799
 C          0.3332631375       -1.6378904595        1.2161676397
 H         -0.1551554611       -0.7440266287        1.5753696596
 N          2.4017795788       -0.7595067828        2.0727602800
 S          2.3673629314        0.7796192573        1.4130453300
 O          3.2113557225        1.5737678459        2.2792338801
 O          1.0068451021        1.2230992195        1.2613791597
 C          3.1553326714        0.6069100360       -0.1774946299
 C          2.4500248906        0.0394887171       -1.2195209400
 C          3.0886773905       -0.1453615440       -2.4360712899
 C          4.4123338012        0.2368131239       -2.5895878797
 C          5.1074474819        0.8050860328       -1.5322654496
 C          4.4767087320        0.9881707339       -0.3125892397
 H          4.9744198726        1.4281330531        0.5365303704
 H          6.1361645224        1.1035540812       -1.6543248794
 H          4.9026638111        0.0909879431       -3.5391547896
 H          2.5361748600       -0.5895206231       -3.2487842000
 H          1.4196108901       -0.2493065912       -1.0832408402
 H          3.3557926984       -1.0022891943        2.3024551602
 H          3.3989027753       -3.0559376044        1.1155439802
 H          2.0899703326       -4.8037516223       -0.0327926900
 H         -0.3105944968       -4.4981302085       -0.4405810904
 H         -2.3863534236       -2.3145146951        1.2468960592
 C         -2.5338011848       -3.2811100249       -0.6574125908
 C         -3.0858290870       -4.5703438240       -0.1285596808
 C         -4.0159147451       -3.4777819625       -0.5600565310
 H         -4.5799592652       -3.6071725016       -1.4714667411
 H         -4.5401100044       -2.9182286116        0.2010571789
 H         -3.0153431783       -5.4535065541       -0.7453226708
 H         -2.9851224075       -4.7604376941        0.9293073192
 H         -2.0936687746       -3.2778275956       -1.6482502907
