  62
        -98.93806204
 C         -2.5365008002       -0.2947607113        0.0433047896
 C         -2.3551336909        0.7290664685        0.9985049399
 C         -2.1908201917        2.1031891987        0.4877472403
 C         -2.2431406916        2.3085557291       -0.8414191396
 C         -2.0970170423        3.6034094494       -1.5970440393
 C         -0.6380020025        4.0703690902       -1.7032511090
 C          0.1579345174        3.9889639903       -0.4036529289
 H          0.1899848079        2.9512818103       -0.0636932292
 H          1.1889696372        4.2747939310       -0.6298295087
 C         -0.3380353133        4.8948634998        0.7215538613
 H          0.3816223366        4.8115908500        1.5401668514
 H         -0.3295982539        5.9308646299        0.3747298416
 C         -1.7274787232        4.5821105188        1.2829170710
 H         -2.5119812933        4.9605314285        0.6329820211
 H         -1.8225777236        5.1200470485        2.2307552212
 C         -1.9702089124        3.1085126886        1.5917460906
 H         -2.8472812024        3.0248727079        2.2451632305
 H         -1.1320661522        2.7225026689        2.1851311406
 H         -0.6318983531        5.0972719603       -2.0739520587
 H         -0.1331469521        3.4388669207       -2.4382569891
 H         -2.4766505920        3.4187967894       -2.6045889894
 H         -2.7164453828        4.3721286989       -1.1445675191
 O         -2.4286506909        1.2880689092       -1.7278416499
 C         -2.5368936402       -0.0288730610       -1.3245555503
 O         -2.6415890996       -0.8481566908       -2.2582459305
 O         -2.3273168109        0.5086991482        2.2423207299
 C         -2.6171314994       -1.7357567515        0.5090172592
 C         -1.4185379189       -2.5043601207        0.0045639392
 C         -1.4805039781       -3.8215056806       -0.4314721512
 C         -0.3351301077       -4.4668958698       -0.8666798912
 C          0.8868585520       -3.8209576691       -0.8770792009
 C          0.9587338111       -2.4998208392       -0.4455090105
 C         -0.1860987293       -1.8639912800        0.0022290695
 H         -0.1176779199       -0.8437663500        0.3502896198
 N          2.1716055907       -1.7943541885       -0.4933719502
 S          2.3931595198       -0.4172082186        0.4489261602
 O          2.1255975098       -0.7110251991        1.8404530501
 O          1.6571966593        0.6761081912       -0.1333389596
 C          4.1423073697       -0.1678889575        0.2099205705
 C          5.0318717599       -0.7622218672        1.0854525605
 C          6.3918028799       -0.5965546864        0.8759617107
 C          6.8373058296        0.1554237942       -0.2008567891
 C          5.9329249693        0.7484804839       -1.0691638090
 C          4.5715862894        0.5862109730       -0.8652843892
 H          3.8303676292        1.0325024928       -1.5079556592
 H          6.2821977991        1.3359010843       -1.9029003888
 H          7.8960001095        0.2829379249       -0.3624193989
 H          7.0969109401       -1.0529748261        1.5517513206
 H          4.6392151502       -1.3271494077        1.9156465403
 H          2.9882593211       -2.3884105580       -0.5129115702
 H          1.7754340523       -4.3250152185       -1.2245544009
 H         -0.3963625570       -5.4905700598       -1.2037718115
 H         -2.4246895878       -4.3411978712       -0.4334705114
 H         -2.5503311196       -1.6914476918        1.6076196293
 C         -3.9413377690       -2.3608535022        0.1238335089
 C         -4.5645434885       -3.4120100928        0.9917053586
 C         -5.1566868793       -2.0368708231        0.9383621989
 H         -6.0972250093       -1.8961041735        0.4275557888
 H         -5.0206918798       -1.3865949533        1.7904573490
 H         -5.1038072680       -4.2183651330        0.5179823183
 H         -4.0352510884       -3.6987136127        1.8880061285
 H         -4.0644947888       -2.4396699520       -0.9502979311
