  62
        -98.94341343
 C         -1.5362317654       -1.5529336372       -0.2181315806
 C         -1.3761726384       -0.1479511593       -0.3197787795
 C         -2.6143429269        0.6219736463       -0.5278137287
 C         -3.7936159805       -0.0196512054       -0.5968042174
 C         -5.1281700658        0.6500871624       -0.7481407187
 C         -5.7533074008        0.9561500767        0.6202061660
 C         -4.8021888626        1.6549329482        1.5920534153
 H         -5.3603344473        1.8455890862        2.5113997308
 H         -3.9879135986        0.9725992752        1.8468598329
 C         -4.2131798068        2.9721558030        1.0681400322
 H         -4.8131701792        3.3395730401        0.2347367977
 H         -4.2696064749        3.7198908001        1.8620698989
 C         -2.7471351183        2.8857990787        0.6389966149
 H         -2.3760506254        3.9038331535        0.4956950455
 H         -2.1567075127        2.4307015501        1.4380555320
 C         -2.4759583003        2.1125776567       -0.6572808632
 H         -1.4328056917        2.2888630845       -0.9346370299
 H         -3.1184555414        2.4919277894       -1.4544031666
 H         -6.6383254464        1.5759736730        0.4647369049
 H         -6.0739013668        0.0146421496        1.0724734227
 H         -5.7904087832       -0.0206530538       -1.2982731370
 H         -5.0049977340        1.5697859018       -1.3166608985
 O         -3.9090334466       -1.3679957045       -0.4796873019
 C         -2.7927053328       -2.1615125867       -0.2699394341
 O         -3.0468972616       -3.3762649311       -0.1420282836
 O         -0.2723978059        0.4466126782       -0.2419408107
 C         -0.3478228024       -2.4714061522        0.0130688183
 C          0.5589267446       -1.8709027514        1.0577076282
 C          0.0918459592       -1.7612263024        2.3648595593
 C          0.8728929655       -1.1849103454        3.3476780908
 C          2.1325795683       -0.6987015150        3.0453557721
 C          2.6083141471       -0.8064304700        1.7439127426
 C          1.8275559162       -1.3994949927        0.7618891784
 H          2.2159244114       -1.4627801884       -0.2399948062
 N          3.8860919241       -0.3351496068        1.4157260142
 S          4.2520212053        0.2496079164       -0.1015663703
 O          4.3325436994       -0.8366358193       -1.0470723274
 O          5.4834963556        0.9861275113        0.1035295979
 C          2.9698807166        1.3952877351       -0.5726883967
 C          2.4237147172        1.3116191222       -1.8351261639
 C          1.4848413990        2.2520404147       -2.2240932393
 C          1.1092586251        3.2547615689       -1.3457933387
 C          1.6612993098        3.3205963855       -0.0766352248
 C          2.6036864749        2.3856051548        0.3153035647
 H          3.0535172310        2.4186607738        1.2945694881
 H          1.3557133743        4.0949640867        0.6089285072
 H          0.3780818570        3.9876724698       -1.6511537699
 H          1.0438441569        2.1931817195       -3.2070533510
 H          2.7370988291        0.5107978468       -2.4858279013
 H          4.3581854833        0.1796627414        2.1435438356
 H          2.7418878061       -0.2392755075        3.8087391894
 H          0.4961939146       -1.1045451743        4.3564067465
 H         -0.9002008742       -2.1259887236        2.5964950511
 H         -0.7762098124       -3.3997352761        0.4260827202
 C          0.3903368475       -2.8606147969       -1.2588250557
 C         -0.3429425577       -3.0391241341       -2.5535983170
 C          0.6137468727       -1.8989437608       -2.3851950131
 H          1.5602643231       -1.9398655275       -2.9054097844
 H          0.2160752779       -0.9020463538       -2.2783985519
 H         -0.0606850888       -3.8612464642       -3.1940049757
 H         -1.4015058271       -2.8231840916       -2.5615061129
 H          1.1918003516       -3.5665009017       -1.0600321529
