  62
        -98.93577118
 C         -2.3060552782       -1.0328417727        0.1281016525
 C         -3.5565821508       -0.9436409124        0.7897497434
 C         -4.5649011549       -0.0277427185        0.2226568995
 C         -4.2375594892        0.6970103777       -0.8627165010
 C         -5.0702306357        1.7171393474       -1.5931343452
 C         -5.1641433999        3.0546150549       -0.8424194492
 C         -5.4396942643        2.9326937616        0.6538187181
 H         -4.6468188329        2.3421948954        1.1164599335
 H         -5.3874501114        3.9368565139        1.0828338792
 C         -6.7976401284        2.3378526013        1.0194517804
 H         -6.9001512987        2.4099703812        2.1052082505
 H         -7.5871546528        2.9448103851        0.5709150952
 C         -7.0187474577        0.8770689545        0.6197581006
 H         -7.2567671895        0.7889270604       -0.4369589110
 H         -7.8968085285        0.5200982123        1.1657942988
 C         -5.8710321917       -0.0609242670        0.9793593419
 H         -6.2283545127       -1.0949448226        0.9019526980
 H         -5.6133476900        0.0742695401        2.0359363732
 H         -5.9433518035        3.6581853609       -1.3111085590
 H         -4.2124230476        3.5779274545       -0.9647406894
 H         -4.5790484608        1.8917052178       -2.5531454167
 H         -6.0594463851        1.3171270202       -1.7953038640
 O         -3.0088452834        0.6092578193       -1.4456910273
 C         -2.0173697629       -0.2426635886       -0.9853615998
 O         -0.9676071589       -0.1921266002       -1.6544920794
 O         -3.8296604076       -1.6061276345        1.8265312744
 C         -1.2761352626       -1.9796260436        0.7206310643
 C          0.0332981371       -1.2607273177        0.9150407872
 C          0.1992547622       -0.4254228795        2.0157043875
 C          1.3742042580        0.2800570836        2.1942761775
 C          2.4029816726        0.1765212589        1.2740691170
 C          2.2374305811       -0.6361132785        0.1610891799
 C          1.0665142374       -1.3652129387       -0.0017065239
 H          0.9431237261       -1.9855203370       -0.8756843846
 N          3.2679265572       -0.7439888343       -0.7862615560
 S          4.1139078273        0.6295135751       -1.2438151279
 O          3.3169799964        1.8294044639       -1.1383678681
 O          4.6454793337        0.3216740186       -2.5540602209
 C          5.4628475710        0.6886064153       -0.0798062838
 C          5.7237799894        1.8534984687        0.6146217934
 C          6.7851924212        1.8803034145        1.5060876877
 C          7.5640986145        0.7476865503        1.6856550715
 C          7.2913768819       -0.4136764705        0.9781912720
 C          6.2326338241       -0.4463692571        0.0849388948
 H          5.9899057687       -1.3270927334       -0.4855758121
 H          7.8994663373       -1.2925258551        1.1201658055
 H          8.3884047453        0.7703773281        2.3808638289
 H          6.9987105363        2.7829292146        2.0558309967
 H          5.0880678154        2.7085550338        0.4465556153
 H          3.0127322609       -1.2924417090       -1.5949386465
 H          3.3154674385        0.7360839448        1.3988058501
 H          1.4913463240        0.9206223965        3.0552360779
 H         -0.6104805096       -0.3290268281        2.7259059444
 H         -1.6803162931       -2.2279314319        1.7152271485
 C         -1.1223157355       -3.2983488069       -0.0228276346
 C         -2.3223576453       -3.9956680211       -0.5883222584
 C         -1.2809058972       -3.4331596226       -1.5064291079
 H         -0.6318534292       -4.1232666229       -2.0263257772
 H         -1.5166402720       -2.5475868624       -2.0755812008
 H         -2.3951518636       -5.0676209870       -0.4842259317
 H         -3.2707613872       -3.4828668190       -0.5199956904
 H         -0.3707052600       -3.9305684260        0.4405760775
