  62
        -98.93445849
 C         -1.9166404652        0.2937194598        0.6529780469
 C         -2.7837923536       -0.7691798619        0.3096291381
 C         -4.1754638367       -0.4062838200       -0.0314488081
 C         -4.5490577763        0.8843813814        0.0046804831
 C         -5.8933616800        1.4928037803       -0.3060267462
 C         -7.1259968476        0.7707099350        0.2598431442
 C         -7.9690373510        0.0761444902       -0.8110322569
 H         -8.9899540314       -0.0298570056       -0.4373302282
 H         -8.0103895179        0.7202667088       -1.6919158732
 C         -7.4811735028       -1.3118571675       -1.2224759054
 H         -8.0762546941       -1.6296905921       -2.0819161689
 H         -7.6774753080       -2.0181207345       -0.4128458184
 C         -5.9990511583       -1.4011249344       -1.5915616703
 H         -5.6980147419       -0.5329857779       -2.1767988548
 H         -5.8670687923       -2.2768659108       -2.2305467260
 C         -5.0719292239       -1.5642416670       -0.3778102265
 H         -5.6578515608       -1.8320293501        0.5060410086
 H         -4.3880178488       -2.4011208570       -0.5489880487
 H         -6.8200707090        0.0576674903        1.0237623523
 H         -7.7531236733        1.5179035641        0.7490422829
 H         -5.8421347186        2.5080474318        0.0941843272
 H         -5.9868361735        1.5915500714       -1.3904475431
 O         -3.6758046539        1.8804584092        0.3313375080
 C         -2.3615914133        1.6186191400        0.6602546876
 O         -1.6950485889        2.6345487966        0.9461485667
 H          1.6975027305        1.5899177197        0.4147186398
 C          1.5227718062        0.8011888501       -0.3014773230
 C          0.4443889450       -0.0574274568       -0.1453172538
 C          0.2446572336       -1.0596667340       -1.0896114364
 C          1.1010253930       -1.1867526608       -2.1675577291
 C          2.1858149025       -0.3388254106       -2.3110905995
 C          2.3992816604        0.6591259789       -1.3689582603
 N          3.5044440832        1.5287509740       -1.4682920487
 S          4.6016545033        1.5330412718       -0.2025253966
 O          3.9610983371        1.9943524514        1.0014687936
 O          5.7228412108        2.3118350240       -0.6776889158
 C          5.0803453732       -0.1781612188       -0.0353850823
 C          4.2489460909       -1.0453038449        0.6460712012
 C          4.5861092673       -2.3886218998        0.7004620206
 C          5.7411070183       -2.8391654468        0.0797702690
 C          6.5673934646       -1.9547332506       -0.5969564275
 C          6.2322970940       -0.6119494125       -0.6623521726
 H          6.8446882485        0.1115809975       -1.1759671555
 H          7.4668239191       -2.3070246159       -1.0757495441
 H          5.9980855635       -3.8856847855        0.1253520896
 H          3.9411500885       -3.0757323920        1.2241818965
 H          3.3591459956       -0.6643960475        1.1202926484
 H          4.0042153524        1.4499365178       -2.3433569012
 H          2.8598665929       -0.4448971902       -3.1478384724
 H          0.9293767700       -1.9625571025       -2.8980681421
 H         -0.5908567784       -1.7318602225       -0.9712264616
 C         -0.4627841566        0.0987582890        1.0518238499
 H         -0.1740915203        1.0277014774        1.5630090460
 C         -0.2522080996       -1.0556383175        2.0140918482
 C          0.9307108853       -1.0226589353        2.9325683183
 C         -0.4513936259       -0.8302261981        3.4807953856
 H         -0.8907043087       -1.6220372253        4.0685739661
 H         -0.7400003508        0.1613614010        3.7994578387
 H          1.5787339580       -0.1585789883        2.8881507987
 H          1.4429474040       -1.9474571863        3.1497911100
 H         -0.5565954262       -2.0121769389        1.6106638812
 O         -2.4381746218       -1.9800337168        0.2751928656
