  62
        -98.93637776
 C         -2.5372325412       -0.0958183527        0.5549226284
 C         -2.1919872928        0.4684618578       -0.6966058990
 C         -1.8249662781        1.8999286397       -0.7004559841
 C         -1.7419070029        2.5553073510        0.4687438296
 C         -1.3051643162        3.9734234452        0.7202230889
 C          0.2187586648        4.0489137797        0.9220692586
 C          1.0198546262        4.3120511022       -0.3506869868
 H          0.7919547322        5.3158011740       -0.7172586178
 H          2.0774014342        4.2899520184       -0.0774502644
 C          0.7859803701        3.3047122625       -1.4779438320
 H          0.7854623529        2.2926087592       -1.0684708261
 H          1.6296569910        3.3756748630       -2.1679572966
 C         -0.5130785251        3.5546222766       -2.2568699997
 H         -0.9114544821        4.5352633472       -1.9976566297
 H         -0.2941745396        3.5822423317       -3.3269963089
 C         -1.5918869300        2.4852420825       -2.0678857344
 H         -2.5483832484        2.8785753070       -2.4329638279
 H         -1.3524278208        1.6215728128       -2.6969759029
 H          0.5494986735        3.1071253205        1.3703799418
 H          0.4386621451        4.8472033580        1.6345641746
 H         -1.6286105652        4.6293629412       -0.0825673512
 H         -1.7972977040        4.2840352820        1.6444513119
 O         -2.0117890719        1.9524633635        1.6631285334
 C         -2.4055556830        0.6321055533        1.7378597093
 O         -2.6100871895        0.2233111979        2.9011986623
 H         -0.2938599665       -1.3899899465        1.1653015840
 C         -0.4867966941       -2.0968021378        0.3691612327
 C         -1.7985549003       -2.3627520862       -0.0035484110
 C         -2.0284442510       -3.2861984020       -1.0131860527
 C         -0.9619138331       -3.8951572023       -1.6534095850
 C          0.3428416431       -3.5788595353       -1.3230841811
 C          0.5807443759       -2.6645494802       -0.3021505518
 N          1.8874817741       -2.3021590772        0.0711471811
 S          2.1177441374       -0.7087464434        0.5926573556
 O          1.8927629582       -0.6594817970        2.0179665052
 O          1.3474785646        0.2090216728       -0.2116429659
 C          3.8586507605       -0.5045884754        0.2636276760
 C          4.2616917352        0.2421154752       -0.8267844318
 C          5.6174414782        0.3713781481       -1.0861978142
 C          6.5408265719       -0.2480346011       -0.2576674379
 C          6.1207468243       -0.9940582023        0.8339507740
 C          4.7672571753       -1.1254831461        1.1003438049
 H          4.3931486074       -1.6848410556        1.9419303759
 H          6.8415881440       -1.4715357850        1.4777562780
 H          7.5948898308       -0.1462079497       -0.4619791988
 H          5.9463181927        0.9535184945       -1.9318486662
 H          3.5059029860        0.7083819686       -1.4385863180
 H          2.5814311765       -2.5774752290       -0.6106970522
 H          1.1705163787       -4.0267396538       -1.8518202400
 H         -1.1511693404       -4.6062273508       -2.4433932993
 H         -3.0378173320       -3.5032307308       -1.3221658482
 C         -2.8722960992       -1.5730658351        0.7037368850
 H         -2.7751659362       -1.7709613843        1.7850212341
 C         -4.2896447354       -1.9643244910        0.3194282194
 C         -5.4071804784       -0.9677870092        0.3948309866
 C         -4.9541194448       -1.4865176527       -0.9351285939
 H         -5.6015880448       -2.1735524166       -1.4604835443
 H         -4.3894091226       -0.8339480615       -1.5806799408
 H         -5.1490866028        0.0469650261        0.6629223624
 H         -6.3614419196       -1.2935322197        0.7809348365
 H         -4.5268767831       -2.9743416286        0.6404177679
 O         -2.1941378645       -0.1785184565       -1.7761727315
