  62
        -98.93942770
 C          2.0859451026        0.2812595166       -0.3289859126
 C          2.8765334371       -0.7983145328        0.1379056453
 C          4.2225026186       -0.4436780617        0.6198373852
 C          4.6053502773        0.8448504550        0.6386468439
 C          5.9585981800        1.3345197947        1.0641898373
 C          6.9205190469        1.4169046178       -0.1292788825
 C          6.9508786882        0.1510749989       -0.9858656782
 H          5.9794312398        0.0255653809       -1.4696730955
 H          7.6852161768        0.3120593416       -1.7781842902
 C          7.3020292303       -1.1289963681       -0.2147114237
 H          7.7755867932       -0.8717082996        0.7333638250
 H          8.0297590677       -1.6990770752       -0.7961294091
 C          6.1149576142       -2.0576926408        0.0474534728
 H          5.5826254191       -2.2438060424       -0.8887443453
 H          6.5055367484       -3.0168646087        0.3975886173
 C          5.1015114662       -1.5688741703        1.0898882166
 H          4.4276753622       -2.4011984072        1.3129523399
 H          5.6229782712       -1.2927059297        2.0084435023
 H          7.9227315059        1.6269826056        0.2487167358
 H          6.6145266805        2.2522948341       -0.7634604678
 H          5.8429996700        2.3302083131        1.4957167565
 H          6.3600646516        0.6649218267        1.8223413593
 O          3.8039610169        1.8588929123        0.2215044627
 C          2.5409950995        1.6019463896       -0.2817943529
 O          1.9234155891        2.6201856966       -0.6553512754
 H         -1.5775854544        1.5864418383       -0.8152521744
 C         -1.4579216271        0.9701550519        0.0628529080
 C         -0.3502898580        0.1456614387        0.1934474609
 C         -0.2245884249       -0.6307880193        1.3422887161
 C         -1.1824187069       -0.5719483598        2.3371830763
 C         -2.2930604617        0.2429264145        2.1976593469
 C         -2.4320073540        1.0152251459        1.0516881823
 N         -3.5588704661        1.8426291604        0.8640923254
 S         -4.5658977015        1.4769491431       -0.4239439780
 O         -3.8328108226        1.5799720131       -1.6583905696
 O         -5.7110300479        2.3452985904       -0.2729112256
 C         -5.0460112694       -0.2162619603       -0.1299447282
 C         -6.2214229798       -0.4733105443        0.5484178244
 C         -6.5539462222       -1.7867476566        0.8387914595
 C         -5.7041548954       -2.8143713092        0.4578480181
 C         -4.5257396907       -2.5396031641       -0.2191810222
 C         -4.1904971233       -1.2283750062       -0.5171461785
 H         -3.2856767330       -0.9787473979       -1.0461424782
 H         -3.8631998604       -3.3368703203       -0.5160619829
 H         -5.9612222632       -3.8361732344        0.6883561920
 H         -7.4709830683       -2.0043897234        1.3622544960
 H         -6.8536612387        0.3561934168        0.8214452056
 H         -4.1166589585        1.9604976060        1.6989061809
 H         -3.0442094506        0.2849123604        2.9721070755
 H         -1.0693212659       -1.1744533641        3.2255028468
 H          0.6283062235       -1.2845999440        1.4400563711
 C          0.6885680274        0.1010046503       -0.8985316243
 H          0.5236037525        0.9816225338       -1.5398554116
 C          0.5576919444       -1.1358285485       -1.7802318912
 C         -0.3823916459       -2.2605935538       -1.4770122936
 C         -0.6816560458       -1.3220868517       -2.6049641882
 H         -0.5796303683       -1.6784827904       -3.6190187771
 H         -1.4747022134       -0.5982773554       -2.4771339726
 H         -0.0532830767       -3.2613729463       -1.7112264148
 H         -0.9808006728       -2.1971690331       -0.5816001115
 H          1.4970773709       -1.4065548286       -2.2494751113
 O          2.4989825686       -1.9971950418        0.1621842573
