  62
        -98.94043926
 C          1.1374553504        1.4267682258        0.5895884791
 C          1.7637119571        1.0098797558       -0.6128899368
 C          2.9444065868        0.1405937013       -0.4517706956
 C          3.2890949147       -0.2909730300        0.7737785806
 C          4.4890958377       -1.1384501250        1.0853083127
 C          4.1751991527       -2.6387779759        1.0286690588
 C          3.4341208024       -3.0591084581       -0.2390608275
 H          3.2785535481       -4.1385210266       -0.1825988535
 H          2.4536144975       -2.5819151850       -0.2443073507
 C          4.1546690041       -2.7091791316       -1.5475091098
 H          4.1189119426       -3.5744914249       -2.2124057616
 H          5.2060563714       -2.4961680159       -1.3512764026
 C          3.5306019963       -1.5352581033       -2.3041429680
 H          3.9591175065       -1.5117640391       -3.3095438875
 H          2.4548422417       -1.6946797096       -2.4100717371
 C          3.7541215895       -0.1497608476       -1.6855418570
 H          4.8183923454       -0.0077619152       -1.4824231219
 H          3.4446704036        0.5942926957       -2.4255056327
 H          5.1139368412       -3.1899829921        1.1088738314
 H          3.5574463837       -2.8976740568        1.8919927557
 H          4.8302436542       -0.8849854433        2.0909014570
 H          5.2796536219       -0.8985367454        0.3759363144
 O          2.5563029498       -0.0084992699        1.8829417607
 C          1.4918466913        0.8765429573        1.8250903651
 O          0.9456105407        1.0828604050        2.9282657897
 O          1.4004296668        1.3597344366       -1.7630247882
 C          0.0481885390        2.4864788403        0.6269491252
 C         -1.0532696415        2.2091138972       -0.3641481888
 C         -1.1066672755        2.8061353076       -1.6173494141
 C         -2.1419310807        2.5094605471       -2.4849535435
 C         -3.1424130898        1.6259073141       -2.1212479656
 C         -3.1071143551        1.0362085423       -0.8624472300
 C         -2.0638061885        1.3302358540        0.0028057537
 H         -2.0504653857        0.8870668215        0.9870252141
 N         -4.1363231860        0.1780489483       -0.4545344816
 S         -3.9374749513       -0.9895716635        0.7123791235
 O         -5.1047122639       -1.8314497006        0.5636200651
 O         -3.7575553368       -0.3819647993        2.0065948072
 C         -2.4866179647       -1.9149699488        0.2471414403
 C         -2.5511804606       -2.6766410582       -0.9035058585
 C         -1.4461268120       -3.4216226512       -1.2786493171
 C         -0.2997858750       -3.3950548151       -0.4989806919
 C         -0.2503357015       -2.6245023489        0.6519939570
 C         -1.3521405488       -1.8744381302        1.0304333525
 H         -1.3409033767       -1.2670216475        1.9226210232
 H          0.6382391369       -2.5984170467        1.2641220328
 H          0.5582737917       -3.9814925287       -0.7875960197
 H         -1.4797983761       -4.0229097329       -2.1727851931
 H         -3.4663915722       -2.6896112414       -1.4724887961
 H         -4.7926237339       -0.0903713005       -1.1714661410
 H         -3.9513383756        1.4008521147       -2.7990654809
 H         -2.1700026217        2.9710807690       -3.4602271807
 H         -0.3236539323        3.4828645628       -1.9166384836
 H         -0.3886423555        2.4030540150        1.6354092239
 C          0.5800771565        3.9098667089        0.5038836436
 C          1.8420419529        4.3158878704        1.2038265564
 C          1.7948429423        4.2744248081       -0.2926163855
 H          1.7866522852        5.2118050578       -0.8293135757
 H          2.3258485605        3.4859476591       -0.8014469192
 H          1.8741243307        5.2761310802        1.6960977761
 H          2.3931191187        3.5423453845        1.7197818319
 H         -0.2279211519        4.6354790968        0.5110746245
