  62
        -98.93787786
 C          2.0311775294        0.9204832892       -0.3578299817
 C          2.8460811867        0.6149252646        0.7629723185
 C          3.4578041478       -0.7183525807        0.7908904712
 C          3.1831268948       -1.5814652546       -0.2035011147
 C          3.7679447753       -2.9581500352       -0.3306445205
 C          5.0622796043       -2.9381403761       -1.1560118313
 C          6.0597505003       -1.8670655240       -0.7143542055
 H          6.9438350862       -1.9655096821       -1.3479637805
 H          5.6318786357       -0.8811165667       -0.9099809361
 C          6.4748245314       -1.9553778951        0.7609005932
 H          7.5579492197       -1.8336616607        0.8273301720
 H          6.2345465039       -2.9436556365        1.1542177785
 C          5.8506097492       -0.8870412853        1.6605694573
 H          6.0077280979        0.1006045102        1.2199505609
 H          6.3724343922       -0.9040682101        2.6209906662
 C          4.3533058004       -1.0506391677        1.9513830973
 H          4.1562233106       -2.0622127193        2.3122193086
 H          4.0882565307       -0.3445359054        2.7437065421
 H          5.5288381624       -3.9227152293       -1.0899358472
 H          4.8022234707       -2.7540279673       -2.2010236149
 H          3.9639222631       -3.3555872825        0.6634309317
 H          3.0363976842       -3.5960058128       -0.8298447815
 O          2.3714841754       -1.2711715740       -1.2443971038
 C          1.7756430723       -0.0170575631       -1.3601906342
 O          1.0856776221        0.1057295072       -2.3881399070
 H         -0.5820936310        0.4597663962       -0.2106949988
 C         -0.7526125169        1.2997260753        0.4473507890
 C          0.1729231850        2.3315951736        0.5073078578
 C         -0.0635467330        3.3942918991        1.3721019117
 C         -1.2097871888        3.4297868629        2.1456071930
 C         -2.1427089795        2.4126250848        2.0644955685
 C         -1.9071602827        1.3356854474        1.2159579843
 N         -2.8175523736        0.2698130891        1.1492399133
 S         -2.9854683333       -0.5645475179       -0.3095994221
 O         -1.9710689162       -1.5864415891       -0.3751750527
 O         -3.0515458208        0.3738827423       -1.4059884923
 C         -4.5823643208       -1.3179030766       -0.0556557262
 C         -5.7085207957       -0.7019212529       -0.5683121782
 C         -6.9497148340       -1.2749717378       -0.3395468377
 C         -7.0438272974       -2.4462837520        0.3968305022
 C         -5.9047467244       -3.0537601654        0.9042476036
 C         -4.6606213064       -2.4865068957        0.6781799160
 H         -3.7470673461       -2.9260803515        1.0435904870
 H         -5.9810663015       -3.9660455420        1.4735143515
 H         -8.0105630139       -2.8903827481        0.5738231432
 H         -7.8361667540       -0.8068495505       -0.7360444572
 H         -5.5846097340        0.2021311733       -1.1425447614
 H         -3.7110493118        0.4837918665        1.5707844608
 H         -3.0411877097        2.4413256163        2.6617184480
 H         -1.3821441143        4.2601599439        2.8132116853
 H          0.6658441778        4.1875839945        1.4438778968
 C          1.4078795231        2.3047855066       -0.3585650817
 H          2.1543843425        2.9567351960        0.1255416844
 C          1.1481044766        2.8715081085       -1.7458367939
 C         -0.1981813191        2.8650060413       -2.3985815805
 C          0.3894660265        4.1550298511       -1.9152901282
 H          0.7406865515        4.8666717909       -2.6470422640
 H         -0.0446055926        4.6007055617       -1.0333267523
 H         -1.0282268807        2.4299673795       -1.8620664197
 H         -0.2343529028        2.6686608091       -3.4594121199
 H          1.9959486400        2.7162479714       -2.4057966515
 O          3.0588261308        1.4355292369        1.6967131944
