  62
        -98.94633361
 C         -1.2919629796       -1.2060940200        0.5409808486
 C         -1.6634701096       -0.4974371696       -0.6281175011
 C         -2.4331438893        0.7342054105       -0.4040112407
 C         -2.6416852892        1.1767087401        0.8485006794
 C         -3.3699955189        2.4356901802        1.2348812798
 C         -4.8937250489        2.2716640004        1.3181306298
 C         -5.6045557590        2.1366533610       -0.0289704002
 H         -6.6740912790        2.2461120611        0.1612797899
 H         -5.3049667489        2.9580585111       -0.6805483699
 C         -5.3639389393        0.7974859211       -0.7398553806
 H         -4.9768784194        0.0692367109       -0.0234222408
 H         -6.3146074494        0.4065929814       -1.1095312006
 C         -4.4114494494        0.8736405513       -1.9332512706
 H         -4.8530100293        1.4976480216       -2.7133521304
 H         -4.2906592696       -0.1345648986       -2.3373594709
 C         -3.0170338092        1.4223047609       -1.6004142605
 H         -2.3604817793        1.2197068811       -2.4495029706
 H         -3.0684789090        2.4985182909       -1.4372167702
 H         -5.1186961891        1.4009448403        1.9384978596
 H         -5.2897466187        3.1530577104        1.8278809401
 H         -3.0006410188        2.7197196398        2.2229475999
 H         -3.1303961188        3.2328912103        0.5302956100
 O         -2.1714774992        0.5205113597        1.9436995992
 C         -1.5185119795       -0.6939427204        1.8188498988
 O         -1.1771460995       -1.2052247007        2.9066153686
 H          1.2795655204       -1.1517639909        1.7498566185
 C          1.6657510503       -1.4700960807        0.7893184784
 C          0.8547796901       -2.2372962003       -0.0395092518
 C          1.3543486900       -2.6380225300       -1.2702671619
 C          2.6313691701       -2.2682745101       -1.6602341219
 C          3.4331358302       -1.5004127705       -0.8359917917
 C          2.9429044604       -1.1024787708        0.4016733685
 N          3.7451115006       -0.3009634712        1.2436657087
 S          4.2021332608        1.1711002989        0.5841991091
 O          5.2987952507        0.9600764590       -0.3260515010
 O          4.4706473011        2.0358652285        1.7111260093
 C          2.7661545109        1.7330786894       -0.3122416707
 C          1.6712689310        2.1573868594        0.4139943495
 C          0.5314782911        2.5574329499       -0.2628337303
 C          0.5036141110        2.5183031103       -1.6481831704
 C          1.6076918109        2.0821741903       -2.3625734505
 C          2.7517321608        1.6827786798       -1.6907571207
 H          3.6328672207        1.3398853898       -2.2077307809
 H          1.5776713308        2.0477972406       -3.4394901405
 H         -0.3863654590        2.8282624206       -2.1716436402
 H         -0.3324236089        2.8883126999        0.2916043098
 H          1.7273370011        2.1812102791        1.4912587395
 H          3.3282662307       -0.1500380514        2.1518038287
 H          4.4245019203       -1.1947605406       -1.1289950216
 H          3.0058085299       -2.5809487799       -2.6228915120
 H          0.7398546199       -3.2260377397       -1.9311275320
 C         -0.5447023499       -2.5278286101        0.4452879882
 H         -0.4700776199       -2.9069679205        1.4743670581
 C         -1.2954722901       -3.5386093798       -0.3927628720
 C         -0.9785633804       -4.9958118899       -0.2483712325
 C         -2.2742670103       -4.4549181298        0.2753092578
 H         -3.1864748004       -4.7034047394       -0.2461011623
 H         -2.3958400702       -4.3634892000        1.3451969878
 H         -1.0017407106       -5.6196809996       -1.1287398726
 H         -0.2189877904       -5.2727610002        0.4671634374
 H         -1.5547944501       -3.1672272394       -1.3761536319
 O         -1.3800557497       -0.8650200993       -1.7954125012
