  62
        -98.94521207
 C         -2.0835089921       -1.4573792997       -0.0085125360
 C         -1.8959796330       -0.4669573643       -1.0029159587
 C         -2.7860902437        0.7013247639       -0.9202584130
 C         -3.6909566791        0.7792382039        0.0717313920
 C         -4.6086047888        1.9423776856        0.3093810739
 C         -3.9685844084        2.9722029163        1.2511385657
 C         -2.5456992867        3.3715661979        0.8590640141
 H         -2.2160885787        4.1273019802        1.5750880151
 H         -1.8866509230        2.5078757922        0.9737397724
 C         -2.4126893227        3.9224949824       -0.5674237761
 H         -3.3916444069        4.2267784072       -0.9395808552
 H         -1.7857263513        4.8159653456       -0.5436912161
 C         -1.7714063247        2.9530385389       -1.5617184060
 H         -0.8361198195        2.5680955550       -1.1484020932
 H         -1.5272330705        3.5097786600       -2.4702452163
 C         -2.6367637842        1.7579512187       -1.9787962998
 H         -3.6159562376        2.1076697671       -2.3123741925
 H         -2.1415936835        1.2687759127       -2.8226822108
 H         -4.6047414095        3.8589993892        1.2734730266
 H         -3.9407462413        2.5491389583        2.2579566603
 H         -4.8522457057        2.4076970220       -0.6437871044
 H         -5.5269274613        1.5681062020        0.7650092290
 O         -3.8386604089       -0.1878314971        1.0123857714
 C         -3.0453038533       -1.3202330797        0.9977042346
 O         -3.2893402003       -2.1266776852        1.9173117629
 H          0.8943891237       -1.7648809301       -1.3522308832
 C          1.1203496092       -1.9085306177       -0.3073691392
 C          0.1386842467       -2.3946160845        0.5435251827
 C          0.4366914224       -2.5297221503        1.8957114446
 C          1.6916765283       -2.2033116029        2.3770688942
 C          2.6725198720       -1.7290941022        1.5236341432
 C          2.3770641444       -1.5669803587        0.1759606481
 N          3.3564822073       -1.0844460315       -0.7105024142
 S          4.2558499615        0.2723111652       -0.3348437763
 O          4.9527701074        0.6080455844       -1.5548526593
 O          5.0804334114       -0.0075822374        0.8140957306
 C          3.0832106468        1.5557609695        0.0623875055
 C          2.6723114751        2.4077927606       -0.9434934911
 C          1.7532205785        3.4012069711       -0.6485091355
 C          1.2506895645        3.5152187857        0.6388685152
 C          1.6657353927        2.6461387127        1.6355346304
 C          2.5943865247        1.6578840239        1.3495185397
 H          2.9506072037        0.9766275463        2.1042155081
 H          1.2708423623        2.7353193586        2.6349933761
 H          0.5308248846        4.2852437228        0.8663730285
 H          1.4300587026        4.0800877534       -1.4213008885
 H          3.0909313119        2.2876934377       -1.9297464619
 H          3.0336480294       -1.0296714528       -1.6658708949
 H          3.6580650203       -1.4794280310        1.8821920355
 H          1.9117967741       -2.3237134010        3.4271750954
 H         -0.3309242276       -2.8870575674        2.5676550031
 C         -1.2466172025       -2.7274248191        0.0435058850
 H         -1.7274497479       -3.3663838423        0.7958136568
 C         -1.2363374228       -3.4695803839       -1.2777170894
 C         -0.7911192851       -4.8997353087       -1.3028795125
 C         -2.2360705092       -4.5603852330       -1.5101137730
 H         -2.6567473063       -4.6715223424       -2.4983581754
 H         -2.9320259619       -4.7800945240       -0.7134228387
 H         -0.2173185271       -5.2473718929       -2.1482771170
 H         -0.5060114910       -5.3493969504       -0.3636290951
 H         -0.9838652226       -2.8472273417       -2.1259247654
 O         -1.0409807712       -0.5370174983       -1.9254898883
