  62
        -98.94608980
 C          0.9837544942        1.6425746846        0.6235412040
 C          1.7559502453        1.5426926913       -0.5585827151
 C          2.8744115149        0.5901156558       -0.5124525402
 C          3.0862475371       -0.1259909710        0.6067145096
 C          4.1913458985       -1.1260843410        0.7851997000
 C          3.7486565081       -2.5416308967        0.3926111297
 C          3.0331787014       -2.6144290686       -0.9557352953
 H          2.7865211500       -3.6620492384       -1.1374955211
 H          2.0882609917       -2.0698423762       -0.8890590440
 C          3.8514334313       -2.0742458198       -2.1368818398
 H          4.9079528945       -2.0342860367       -1.8688633604
 H          3.7556983235       -2.7678289668       -2.9747662706
 C          3.4077513432       -0.7014131231       -2.6452583147
 H          2.3289886983       -0.7053039366       -2.8216192492
 H          3.8956470577       -0.5214744200       -3.6070154609
 C          3.7420685089        0.4870105323       -1.7349627261
 H          4.7982396643        0.4546107846       -1.4592618076
 H          3.5639788134        1.4034157829       -2.3052700321
 H          4.6301078172       -3.1850688000        0.3746961496
 H          3.0689838418       -2.9125367984        1.1609732499
 H          5.0438572319       -0.8199558375        0.1816247635
 H          4.4858126516       -1.1250033121        1.8361732678
 O          2.2922554131       -0.0368303688        1.7051356567
 C          1.2234039863        0.8439418504        1.7408234592
 O          0.5733411645        0.8218960165        2.8065528414
 H         -1.2847924693        0.2635932873        0.3093822550
 C         -1.6755076126        0.9849595461       -0.3932029230
 C         -1.1989378653        2.2899629575       -0.3588635766
 C         -1.7067475301        3.2077470532       -1.2680835597
 C         -2.6621955666        2.8189198845       -2.1913809423
 C         -3.1501470802        1.5257563656       -2.2063712660
 C         -2.6555188035        0.6009529862       -1.2925567561
 N         -3.1297001445       -0.7191755976       -1.2719836657
 S         -3.3747410547       -1.5051615739        0.1879506940
 O         -4.4339187022       -2.4525539969       -0.0915420071
 O         -3.6237615994       -0.5704588646        1.2590125119
 C         -1.8750410858       -2.4210379712        0.4704490203
 C         -1.0513644221       -2.1118822175        1.5336296605
 C          0.0810766218       -2.8819576185        1.7498886277
 C          0.3643443846       -3.9461400256        0.9084570071
 C         -0.4694479136       -4.2400734332       -0.1601655045
 C         -1.5998858069       -3.4724171343       -0.3829675585
 H         -2.2834808716       -3.6775278076       -1.1898716823
 H         -0.2427214027       -5.0662900267       -0.8143471276
 H          1.2373466044       -4.5534538429        1.0888942134
 H          0.7311139359       -2.6353062845        2.5751464663
 H         -1.2950566434       -1.2796827842        2.1774239100
 H         -3.8763445455       -0.9101065852       -1.9244145693
 H         -3.9066881241        1.2296331192       -2.9171733637
 H         -3.0418707430        3.5381177561       -2.9013308217
 H         -1.3514349766        4.2248331058       -1.2602282296
 C         -0.1677835245        2.6292914129        0.6900620185
 H         -0.6384900274        2.4840855829        1.6742442592
 C          0.3510096807        4.0492891680        0.6031307522
 C         -0.4210964449        5.1717390608        1.2265294269
 C          0.8624447882        4.7096525081        1.8466251091
 H          1.7311909690        5.3464883687        1.7732055602
 H          0.8134966220        4.1427815649        2.7653357040
 H         -0.4324734599        6.1300091253        0.7295264670
 H         -1.3441868964        4.9243046278        1.7291022463
 H          0.8838179027        4.2431863787       -0.3204513712
 O          1.5348944830        2.2232548181       -1.5938420355
