  62
        -98.94480046
 C          1.6080582839        1.2908994224       -0.2404545616
 C          1.4062409794       -0.0835436471       -0.5126601942
 C          2.2481693760       -1.0188901986        0.2443343177
 C          3.1056998868       -0.5582378137        1.1708718235
 C          4.0050755659       -1.3912758090        2.0433611261
 C          5.3219469825       -1.8043834180        1.3710630648
 C          5.1943064727       -2.8763124378        0.2877202326
 H          6.2043366183       -3.2246714720        0.0628209819
 H          4.6373959495       -3.7259173778        0.6841071554
 C          4.5391591632       -2.3890996661       -1.0121815510
 H          5.1219963282       -2.7394148454       -1.8669263145
 H          4.5539179203       -1.2971863222       -1.0394788455
 C          3.1019644503       -2.8686537299       -1.2154183202
 H          3.0893962723       -3.9555542164       -1.3219948513
 H          2.7233565444       -2.4328234102       -2.1431372125
 C          2.1441809503       -2.4782982269       -0.0824135270
 H          1.1200204321       -2.6755017335       -0.4083145144
 H          2.3423580868       -3.0789975980        0.8051847609
 H          5.9801272047       -2.1868061143        2.1547055456
 H          5.7913879603       -0.9129163277        0.9486886329
 H          3.4683362858       -2.2797523174        2.3780991215
 H          4.2407577330       -0.7802681452        2.9176130466
 O          3.2432032178        0.7679334025        1.4379862991
 C          2.5134193916        1.7126550826        0.7380547514
 O          2.7605271524        2.8911438991        1.0688134833
 O          0.5761226028       -0.5366499962       -1.3446110352
 C          0.8356621745        2.4118409095       -0.9207717678
 C         -0.4582554326        2.6679028089       -0.1838790895
 C         -0.7566036825        3.9311284739        0.3116506204
 C         -1.9235298340        4.1481312002        1.0225983769
 C         -2.7951625557        3.1051040479        1.2745125181
 C         -2.5059126554        1.8357155855        0.7829523510
 C         -1.3589461512        1.6337935049        0.0311258129
 H         -1.1427137921        0.6515804510       -0.3519426524
 N         -3.3735646294        0.7636335988        1.0344986305
 S         -2.8148226394       -0.7753346894        1.4219916830
 O         -3.6744431495       -1.2100667619        2.5065787436
 O         -1.3985829316       -0.7767979288        1.6938200477
 C         -3.2221079616       -1.7369107043       -0.0215426684
 C         -2.2835840588       -1.9740378880       -1.0043400423
 C         -2.6550023360       -2.7138373548       -2.1175977848
 C         -3.9476890856       -3.1998191594       -2.2307047868
 C         -4.8795530024       -2.9532247727       -1.2333806485
 C         -4.5156124043       -2.2157455308       -0.1194589343
 H         -5.2022675038       -2.0134930205        0.6857837106
 H         -5.8846854662       -3.3332304120       -1.3207442203
 H         -4.2285871949       -3.7746273550       -3.0992049153
 H         -1.9253412658       -2.9011247064       -2.8893774497
 H         -1.2818484256       -1.5848564559       -0.9031110278
 H         -4.1635232191        1.0033597479        1.6161610286
 H         -3.6917787621        3.2665188736        1.8541060612
 H         -2.1462992087        5.1337205221        1.4027140457
 H         -0.0576235915        4.7396937548        0.1555030804
 H          1.4601749947        3.3099382331       -0.8143748747
 C          0.5825803520        2.1797157312       -2.3970711633
 C          0.3682034890        3.3627167678       -3.2906916746
 C          1.6345656489        2.5672084155       -3.3903451304
 H          1.7852315688        1.9359097037       -4.2529469453
 H          2.5447187982        3.0066622321       -3.0078064460
 H         -0.3547086609        3.2803824359       -4.0874831152
 H          0.4219161689        4.3445102742       -2.8450236325
 H          0.0128660148        1.2832978304       -2.6005582014
