  62
        -98.93913143
 C          1.9825957891        1.6885130419       -0.1513698844
 C          2.6995385715        1.1243105347        0.9382043191
 C          3.8283995024        0.2529068926        0.6044204986
 C          4.1508893221        0.0557109145       -0.6861525737
 C          5.2707937429       -0.8092478294       -1.1978519380
 C          4.9013747360       -2.2945264969       -1.3137624807
 C          4.7768915124       -3.0399255882        0.0159026097
 H          4.7347612623       -4.1055938363       -0.2179424103
 H          5.6753824113       -2.8716682939        0.6104706724
 C          3.5353109824       -2.6673869248        0.8389851988
 H          2.8085462196       -2.1624178450        0.1973494138
 H          3.0539581413       -3.5774397415        1.2046313332
 C          3.8211729812       -1.7852594357        2.0547950439
 H          2.8685366071       -1.5498670613        2.5365020045
 H          4.4355456988       -2.3364293609        2.7702548794
 C          4.5230978053       -0.4618051070        1.7234319070
 H          5.5678453184       -0.6412869740        1.4708414202
 H          4.4788666670        0.1803840211        2.6063324240
 H          3.9628871461       -2.3789813456       -1.8675348993
 H          5.6808537530       -2.7794359898       -1.9061765670
 H          6.1438641161       -0.6987261243       -0.5541099127
 H          5.5218684648       -0.4378128290       -2.1937091367
 O          3.4814913556        0.6592781875       -1.7004795839
 C          2.3676088269        1.4698184300       -1.4736887426
 O          1.8748134811        1.9185814194       -2.5239751177
 O          2.3994739093        1.3483290716        2.1411574522
 C          0.7616906623        2.5010980703        0.2518269630
 C         -0.2109857531        1.6017347227        0.9765878020
 C         -0.8661533852        2.0370608929        2.1233746158
 C         -1.7522787045        1.2099718570        2.7888617425
 C         -2.0186214214       -0.0601272727        2.3094286668
 C         -1.3723077303       -0.5038678424        1.1623834386
 C         -0.4695923575        0.3216623350        0.5079450052
 H          0.0361479005       -0.0462887874       -0.3736606914
 N         -1.6288673671       -1.7874383953        0.6303645350
 S         -2.4478739655       -1.8230544335       -0.8310098046
 O         -2.6654199353       -3.2227538192       -1.1197661436
 O         -1.7186347886       -1.0612812154       -1.8106969520
 C         -4.0084425899       -1.0364285713       -0.4673588053
 C         -5.0987909512       -1.8238121956       -0.1519960084
 C         -6.2894547570       -1.2098737856        0.2023310014
 C         -6.3656036976        0.1740952612        0.2462823891
 C         -5.2611635386        0.9505728877       -0.0694910441
 C         -4.0686720412        0.3426066097       -0.4293692832
 H         -3.1932289121        0.9156759046       -0.6882406343
 H         -5.3194106587        2.0265379277       -0.0370890295
 H         -7.2911901303        0.6515735292        0.5264730880
 H         -7.1507311325       -1.8112127682        0.4448811363
 H         -4.9934199830       -2.8955336993       -0.2031082960
 H         -2.0896305454       -2.4084201939        1.2820147549
 H         -2.7108710001       -0.7101459030        2.8234225372
 H         -2.2426395054        1.5570356983        3.6851979155
 H         -0.6566992311        3.0255566483        2.5044672151
 H          1.1168426335        3.2438214867        0.9866952189
 C          0.0917159265        3.2704380644       -0.8739949549
 C         -0.9570079159        2.6674307202       -1.7543032457
 C         -1.3358208982        3.7188382051       -0.7569321495
 H         -1.5936264637        4.7006668150       -1.1237838955
 H         -1.8915817637        3.4099571291        0.1157433854
 H         -0.9315158953        2.9223912778       -2.8028637879
 H         -1.2395980900        1.6395386275       -1.5813586342
 H          0.7804168502        3.9531085146       -1.3591460952
