  62
        -98.94176434
 C          2.2351387797        1.1916478295        0.3517766614
 C          1.9807233690        0.2859846584       -0.7085541706
 C          2.6348244751       -1.0284546043       -0.5971800060
 C          3.3483395591       -1.3247205960        0.5032978537
 C          3.9939371919       -2.6513319902        0.7774117854
 C          3.0369412573       -3.5892524341        1.5273590136
 C          1.6477411605       -3.6924391884        0.8965577942
 H          1.0745942127       -4.4056294789        1.4930817513
 H          1.1444569967       -2.7260274037        0.9786234313
 C          1.6517271299       -4.1359884267       -0.5729055625
 H          2.6093561850       -4.5973976692       -0.8167595448
 H          0.8824376194       -4.8979757004       -0.7127854501
 C          1.3593027938       -3.0145050258       -1.5708448411
 H          0.4493334900       -2.4865259093       -1.2766786254
 H          1.1770757133       -3.4681329010       -2.5482766739
 C          2.4728261268       -1.9767165604       -1.7520118986
 H          3.4176588671       -2.4798329624       -1.9683644110
 H          2.2067720949       -1.3569490088       -2.6131903988
 H          3.4921826321       -4.5803286906        1.5725915694
 H          2.9234564507       -3.2218368807        2.5501560422
 H          4.2985338208       -3.1032734121       -0.1645837943
 H          4.8798045945       -2.4835079926        1.3923765365
 O          3.5127022353       -0.4541176097        1.5327926937
 C          2.9688754678        0.8189486171        1.4807330031
 O          3.1935440286        1.5111101621        2.4947321226
 H         -0.2368513597        1.3799467624        1.7355582926
 C         -0.6566051456        1.8640374200        0.8614529490
 C          0.1914578085        2.5559059401        0.0049615454
 C         -0.3527827181        3.1660842981       -1.1166016345
 C         -1.7124330565        3.0870851179       -1.3630930640
 C         -2.5556694168        2.4100185795       -0.5014188252
 C         -2.0202849791        1.7868712463        0.6192366167
 N         -2.8570869031        1.1154067615        1.5261351712
 S         -4.1053257448        0.1320665477        1.0141680231
 O         -5.1117007248        0.9330812306        0.3642042948
 O         -4.5213464038       -0.5756501179        2.2036475636
 C         -3.3925607610       -1.0145423845       -0.1489441618
 C         -3.4628254257       -0.7577813914       -1.5028690767
 C         -2.8874154487       -1.6586155606       -2.3850717490
 C         -2.2584454613       -2.7945936268       -1.9012184542
 C         -2.1946823149       -3.0376575323       -0.5371432309
 C         -2.7617761028       -2.1377113164        0.3493788421
 H         -2.7439951114       -2.2965829191        1.4158838889
 H         -1.7027140497       -3.9212687923       -0.1630617167
 H         -1.8146258462       -3.4958440753       -2.5900315394
 H         -2.9312987799       -1.4707026069       -3.4456555069
 H         -3.9725633330        0.1280766304       -1.8432175220
 H         -2.3667685413        0.6940312538        2.3006666421
 H         -3.6183320970        2.3606391173       -0.6738893883
 H         -2.1237566541        3.5641774941       -2.2397516481
 H          0.2898924892        3.6848725552       -1.8083330519
 C          1.6584753740        2.5974160165        0.3564064158
 H          1.7375146149        2.9311906010        1.4045915023
 C          2.4488497574        3.6000270040       -0.4710072675
 C          3.9330138018        3.4621823432       -0.6303075664
 C          3.0313558302        3.2685192348       -1.8104832548
 H          3.0204114091        4.0321667239       -2.5745679056
 H          2.8833289172        2.2703095978       -2.1894730607
 H          4.5396755960        4.3540595408       -0.5830251485
 H          4.4031389986        2.5919835150       -0.1949458045
 H          2.0740768543        4.6107446735       -0.3400774889
 O          1.2531541318        0.5445609162       -1.6999512957
