  62
        -98.94044560
 C          1.9762437724        1.4677987234        0.4512651988
 C          2.3418778395        0.8821326800       -0.7856873427
 C          3.1959380977       -0.3148343779       -0.7020223873
 C          3.5656726059       -0.7874289267        0.5013549104
 C          4.3666868438       -2.0363758194        0.7268289726
 C          3.4511244402       -3.2579741537        0.8908863640
 C          2.3828114823       -3.3762760168       -0.1963695554
 H          1.8073950535       -4.2825364963        0.0052114143
 H          1.6960611690       -2.5305303879       -0.1148092652
 C          2.9376552043       -3.4319607898       -1.6265563335
 H          3.9974958224       -3.6880017922       -1.6047390061
 H          2.4235577185       -4.2259531454       -2.1725356471
 C          2.7457781191       -2.1434856421       -2.4286071904
 H          1.6963528276       -1.8393785415       -2.3870810999
 H          2.9800028641       -2.3560757622       -3.4752441380
 C          3.6126460499       -0.9531779465       -1.9979466975
 H          4.6600221390       -1.2587456541       -1.9570150203
 H          3.5111256349       -0.1768110118       -2.7621721248
 H          4.0702884777       -4.1566592362        0.8941586134
 H          2.9512766143       -3.1867803719        1.8596446889
 H          5.0431935060       -2.1857755403       -0.1123775138
 H          4.9545539416       -1.9085092244        1.6371629193
 O          3.1974521916       -0.1993449890        1.6671512312
 C          2.4012003131        0.9323844836        1.6718907616
 O          2.1443692727        1.3698510662        2.8102865864
 H         -0.1795713432        1.2641340655       -1.3202712886
 C         -0.8480804609        1.5621764468       -0.5259650981
 C         -0.3563519929        2.3302091038        0.5212213286
 C         -1.2277918835        2.7071860927        1.5355821974
 C         -2.5603351452        2.3327169174        1.4949359074
 C         -3.0482451816        1.5726555930        0.4473101152
 C         -2.1816212578        1.1835050251       -0.5666982999
 N         -2.6593673836        0.3948029926       -1.6279739405
 S         -3.6081944897       -0.9261152918       -1.2382849808
 O         -3.3924917877       -1.8813170953       -2.3016445731
 O         -4.9712174920       -0.4971805442       -1.0462530305
 C         -2.9560085391       -1.5457883071        0.3037384435
 C         -1.6345071854       -1.9444377642        0.3453161756
 C         -1.1116358087       -2.4071457939        1.5415358452
 C         -1.9142120767       -2.4627632966        2.6708155598
 C         -3.2401162726       -2.0636759836        2.6120188952
 C         -3.7679005085       -1.5984643284        1.4182404731
 H         -4.7921581636       -1.2751601332        1.3283379985
 H         -3.8614328985       -2.1100516020        3.4917311950
 H         -1.4998616867       -2.8198543103        3.6003463277
 H         -0.0796239241       -2.7168637715        1.5909363563
 H         -1.0339202716       -1.8931340705       -0.5496780231
 H         -1.9473457484        0.1507170908       -2.3008744457
 H         -4.0835615607        1.2767067046        0.3963615058
 H         -3.2265029023        2.6342131971        2.2885113547
 H         -0.8513643053        3.2860088419        2.3660822234
 C          1.1020088129        2.7084777158        0.5614764617
 H          1.3108922222        3.1154420451        1.5628165399
 C          1.4733337810        3.7856648868       -0.4501041453
 C          0.5737806629        4.2381974972       -1.5573709290
 C          0.8124845380        5.1306757457       -0.3790979188
 H          1.4183232885        6.0146899272       -0.5081298919
 H          0.0044727296        5.2471777817        0.3276212212
 H         -0.3955282683        3.7755549195       -1.6569019981
 H          1.0332063556        4.4870824721       -2.5020235326
 H          2.5355845998        3.7804150831       -0.6724390229
 O          1.9813338948        1.3112709713       -1.9130774404
