  62
        -98.94094046
 C          2.3032998998        0.8533991994       -0.1692618237
 C          3.5947952192        1.2201419233        0.2798362180
 C          4.7096582920        0.4526672188       -0.2853901648
 C          4.4634470760       -0.5140961150       -1.1883944155
 C          5.4964331241       -1.3663737866       -1.8748309812
 C          5.9423060789       -2.5870924738       -1.0580549870
 C          6.8342705140       -2.2749574225        0.1442330802
 H          7.2457077528       -3.2244122070        0.4924208905
 H          7.6717970785       -1.6554479690       -0.1777275705
 C          6.1070468037       -1.5943904162        1.3122959942
 H          5.0286120726       -1.7249717064        1.1949358160
 H          6.3878162780       -2.0807334613        2.2492489017
 C          6.4116494667       -0.1042156474        1.4661317712
 H          7.4667332789        0.0305094625        1.7139976517
 H          5.8180696550        0.2830603378        2.2981462059
 C          6.0906345832        0.7372896887        0.2238531836
 H          6.1297673363        1.7925221584        0.5046400783
 H          6.8293333443        0.5544757679       -0.5560010437
 H          5.0528985995       -3.1259024264       -0.7229572157
 H          6.4949515724       -3.2453658674       -1.7324000967
 H          5.0395819040       -1.7204725021       -2.8014431066
 H          6.3654289696       -0.7575915376       -2.1259194278
 O          3.2070135821       -0.8240569464       -1.6083234450
 C          2.0966072009       -0.1676264298       -1.0962241695
 O          1.0077800322       -0.5774712866       -1.5444064609
 O          3.8039334496        2.1413859158        1.1136375905
 C          1.0977646539        1.5923761268        0.3822990925
 C          0.1565668012        0.6176993638        1.0452237990
 C          0.6617667891       -0.2419986293        2.0179856936
 C         -0.1566746672       -1.1650950964        2.6376451612
 C         -1.4951142252       -1.2533079872        2.2968069851
 C         -2.0139244978       -0.3905583525        1.3391560425
 C         -1.1905891376        0.5466149553        0.7288197828
 H         -1.6136009032        1.1992871927       -0.0146541813
 N         -3.3864083393       -0.4314489530        1.0241835755
 S         -3.9138725765       -0.3266091041       -0.5762617444
 O         -3.4556445737       -1.4704692275       -1.3349494934
 O         -3.5927045390        0.9729429193       -1.1061384303
 C         -5.6739472621       -0.4385752514       -0.3061549040
 C         -6.3466345340       -1.6078683342       -0.6040367572
 C         -7.7109096946       -1.6758248653       -0.3667185946
 C         -8.3744603171       -0.5804232117        0.1644576591
 C         -7.6853797327        0.5871424210        0.4583676051
 C         -6.3222429226        0.6619308431        0.2219282592
 H         -5.7470659736        1.5497459702        0.4261996909
 H         -8.2051385519        1.4375598912        0.8693570128
 H         -9.4358237059       -0.6357240329        0.3482320341
 H         -8.2494797936       -2.5809614357       -0.5970369042
 H         -5.7901842826       -2.4314723095       -1.0219871745
 H         -3.8436835383       -1.2217329060        1.4616381565
 H         -2.1330285096       -1.9838322821        2.7714845994
 H          0.2502306821       -1.8289613961        3.3857965370
 H          1.7110915189       -0.1801173984        2.2739624794
 H          1.4969207373        2.2670052995        1.1547625658
 C          0.4470789424        2.4262572458       -0.7004344453
 C         -0.3194336279        3.6626627680       -0.3407661756
 C          1.0116273886        3.7768801025       -1.0193063725
 H          1.0418877457        4.0916462540       -2.0516766232
 H          1.8574050407        4.1093788985       -0.4352787026
 H         -1.2096915196        3.8944318753       -0.9059412972
 H         -0.3792476977        3.9250618415        0.7046587421
 H          0.0858076977        1.8266756120       -1.5298407070
