  62
        -98.93685431
 C          2.2737602538        0.6330443839       -0.0136114324
 C          3.1879176351        0.2120848301        0.9883689713
 C          4.1148053322       -0.8744573059        0.6359865476
 C          4.0524422890       -1.4161251076       -0.5919674040
 C          4.8615875146       -2.5538855150       -1.1623832595
 C          6.3652308691       -2.5768193515       -0.8563793977
 C          7.0252270374       -1.1950487415       -0.7405012979
 H          6.3423922900       -0.4224922018       -1.0983731717
 H          7.9092733816       -1.1694747218       -1.3803811431
 C          7.4691151758       -0.8628666692        0.6861730701
 H          8.2298035884       -0.0795952486        0.6434818945
 H          7.9365249998       -1.7483335686        1.1224288799
 C          6.3640287294       -0.3695797493        1.6193627098
 H          6.0426651408        0.6306608451        1.3165747492
 H          6.7868166160       -0.2792182158        2.6228035396
 C          5.1117398973       -1.2586567442        1.6912467713
 H          4.6219317005       -1.0725762423        2.6507687034
 H          5.3726450021       -2.3125185034        1.6333044865
 H          6.8411940131       -3.1413210859       -1.6600242099
 H          6.5416497805       -3.1324052336        0.0635292644
 H          4.7087221433       -2.4967819665       -2.2428845225
 H          4.4131852174       -3.4924082069       -0.8235008961
 O          3.1577064988       -0.9865923996       -1.5240397459
 C          2.2574532666        0.0369997869       -1.2731550298
 O          1.5246079177        0.2948266854       -2.2510282171
 O          3.2262303406        0.7264560467        2.1371782168
 C          1.3386224536        1.7715078212        0.3577518869
 C         -0.0490517496        1.2827779658        0.7003036556
 C         -0.5865463845        1.4966457173        1.9642052077
 C         -1.8696925595        1.0743498590        2.2650138895
 C         -2.6402826951        0.4274968139        1.3157037548
 C         -2.1114014755        0.2056728798        0.0508454639
 C         -0.8275246949        0.6375117587       -0.2500416874
 H         -0.4209666326        0.4600964210       -1.2348626814
 N         -2.8749159359       -0.4738509877       -0.9155692343
 S         -4.4211312759        0.0953192723       -1.2397481002
 O         -4.7241378638       -0.3619892238       -2.5782374937
 O         -4.5218653843        1.5181090131       -1.0089093144
 C         -5.4502539861       -0.7831337762       -0.0819055044
 C         -5.3943956777       -2.1631958000       -0.0785869985
 C         -6.1951291278       -2.8628965490        0.8098923502
 C         -7.0358832744       -2.1749687443        1.6724500524
 C         -7.0833041336       -0.7894856638        1.6539701340
 C         -6.2837146227       -0.0833578127        0.7685589740
 H         -6.2819833598        0.9939750674        0.7224066273
 H         -7.7377590099       -0.2567684483        2.3250298396
 H         -7.6576637005       -2.7223748894        2.3631437481
 H         -6.1608891937       -3.9403580657        0.8271766641
 H         -4.7298590668       -2.6587118204       -0.7668284269
 H         -2.3704163468       -0.6351407613       -1.7759349843
 H         -3.6394189559        0.0943539169        1.5445242887
 H         -2.2741472303        1.2485049721        3.2503252079
 H          0.0128739978        1.9901750888        2.7152165914
 H          1.7709470983        2.2070747188        1.2686823639
 C          1.2680619332        2.8547633610       -0.7020594081
 C          0.8397356831        4.2342931690       -0.3051261305
 C          2.2666327389        3.9710044315       -0.6806757428
 H          2.6340646513        4.3509830460       -1.6221386492
 H          3.0072664606        3.9633807366        0.1058087866
 H          0.2213408109        4.7969810830       -0.9876308152
 H          0.6137961995        4.4072022813        0.7360984490
 H          0.9528454154        2.4895107826       -1.6711427008
