  62
        -98.93342479
 C         -1.6156736787       -0.3004373636        0.0123970805
 C         -2.7416507753       -1.1078084382        0.3077673338
 C         -4.0720958704       -0.4913569155        0.1510286925
 C         -4.1505956011        0.7894633510       -0.2506431924
 C         -5.3776576148        1.6348147016       -0.4814021095
 C         -6.5430578507        0.9691981174       -1.2294583972
 C         -7.7549404768        0.6869076162       -0.3396997104
 H         -7.8884326016        1.5288953123        0.3427709116
 H         -8.6458706219        0.6341516739       -0.9694719482
 C         -7.6813742591       -0.6093820731        0.4653937630
 H         -8.5295672864       -0.6188459186        1.1540073679
 H         -7.8013114006       -1.4603162761       -0.2087127938
 C         -6.3949062837       -0.8087550774        1.2692703891
 H         -6.6131111334       -1.5083687613        2.0789510149
 H         -6.0851467375        0.1271766505        1.7329309963
 C         -5.2386166353       -1.3947329815        0.4453355552
 H         -5.6196146457       -1.7980849755       -0.4974887490
 H         -4.8005533602       -2.2437198680        0.9794215763
 H         -6.2019200164        0.0520911205       -1.7073265507
 H         -6.8591740861        1.6478472561       -2.0234459806
 H         -5.7240779016        2.0123536355        0.4839693035
 H         -5.0218954759        2.5015137837       -1.0433513715
 O         -3.0394035240        1.5425994936       -0.4874335066
 C         -1.7530959405        1.0377356673       -0.3566356635
 O         -0.8616832100        1.8735396680       -0.5921764038
 O         -2.6407792104       -2.3020614976        0.6974154656
 C         -0.2434100456       -0.9307103196        0.1690434735
 C          0.6772454183       -0.0163108424        0.9347732774
 C          0.4198352712        0.2209576046        2.2828655599
 C          1.2310650548        1.0611515405        3.0197954733
 C          2.3305729660        1.6648721776        2.4345263343
 C          2.5946064750        1.4363549001        1.0899254491
 C          1.7700353791        0.6007846391        0.3482121537
 H          1.9676567174        0.4805152238       -0.7030473162
 N          3.6994746439        2.0322081565        0.4685690057
 S          4.5211548324        1.2360106904       -0.7428030743
 O          5.8525927190        1.8044810728       -0.7042884671
 O          3.8298498504        1.3539320634       -2.0016250247
 C          4.5786201674       -0.4756736112       -0.2379771092
 C          5.0768220335       -0.7811308661        1.0132150317
 C          5.1172849749       -2.1067007608        1.4135334953
 C          4.6648744278       -3.1009265942        0.5595805003
 C          4.1767685610       -2.7796477672       -0.6972295617
 C          4.1313431238       -1.4546364633       -1.1011373000
 H          3.7529126755       -1.1593177730       -2.0668967861
 H          3.8276841929       -3.5540511992       -1.3618815635
 H          4.6934348393       -4.1322600080        0.8738956681
 H          5.4990635703       -2.3605126604        2.3892210806
 H          5.4284784715        0.0122439569        1.6521408657
 H          4.3120900497        2.5551277938        1.0756167224
 H          2.9684828348        2.3199893008        3.0079874643
 H          1.0130195529        1.2429906852        4.0613615113
 H         -0.4367114906       -0.2541099129        2.7413959042
 H         -0.4259535152       -1.8241401237        0.7891715173
 C          0.3702322203       -1.4267539471       -1.1312814138
 C         -0.4858330117       -1.9418142786       -2.2480119874
 C          0.2707296701       -0.6594636801       -2.4139814615
 H          1.1284249474       -0.6417032119       -3.0714000292
 H         -0.2764382061        0.2704427990       -2.4016996307
 H         -0.1522850630       -2.8120597554       -2.7926908253
 H         -1.5575307714       -1.8880002876       -2.1230590955
 H          1.3021832771       -1.9557022552       -0.9548793782
