  62
        -98.93969886
 C         -2.6395461141       -1.3180419823        0.3218652026
 C         -2.8716532913       -0.5103839924       -0.8186438500
 C         -3.8837709985        0.5475973680       -0.6611369868
 C         -4.5200051371        0.6921732600        0.5145673413
 C         -5.5238765464        1.7634208341        0.8251231775
 C         -4.8455494014        3.0038245879        1.4234039561
 C         -3.6335301170        3.4890925387        0.6281186731
 H         -3.2564657347        4.3857467569        1.1246193576
 H         -2.8446125422        2.7352667825        0.6846436775
 C         -3.9269762248        3.8058447177       -0.8450410507
 H         -5.0001836964        3.9339395064       -0.9902020364
 H         -3.4498235650        4.7540575868       -1.1015435921
 C         -3.4039528020        2.7630837060       -1.8347751863
 H         -2.3482113210        2.5642921794       -1.6326043291
 H         -3.4689995249        3.1860729617       -2.8409534467
 C         -4.1526009232        1.4241995019       -1.8524560909
 H         -5.2236890763        1.6035069257       -1.9649202410
 H         -3.8050780814        0.8614898081       -2.7240639905
 H         -5.5849583045        3.8041011813        1.4875152338
 H         -4.5156859172        2.7630613090        2.4365747802
 H         -6.0563783393        2.0306048464       -0.0855781440
 H         -6.2370201521        1.3655741868        1.5489689402
 O         -4.2790472451       -0.1069585965        1.5844082675
 C         -3.3374810719       -1.1180376469        1.5175966806
 O         -3.2167114201       -1.7721369538        2.5722691743
 H         -0.2719678718       -0.4888365993       -0.9013318488
 C          0.3055067821       -0.9281005168       -0.1009445818
 C         -0.2457223025       -1.9616355432        0.6442467787
 C          0.5168648451       -2.5299969120        1.6573805775
 C          1.7971201612       -2.0715253235        1.9158463544
 C          2.3408455971       -1.0390169442        1.1729335147
 C          1.5878880621       -0.4654575585        0.1564719443
 N          2.1257833966        0.5918200470       -0.5992775846
 S          3.6380895105        0.3624693098       -1.2947603107
 O          3.6765573979        1.2592842625       -2.4287437825
 O          3.8851900534       -1.0341742940       -1.5696936700
 C          4.7710419476        0.9506973350       -0.0534157938
 C          4.6057952773        2.2373274102        0.4209364130
 C          5.4841268337        2.7145869424        1.3804982126
 C          6.5090490798        1.9032034339        1.8443713988
 C          6.6640181402        0.6152674017        1.3551355714
 C          5.7878160717        0.1312032710        0.3959820500
 H          5.8658985065       -0.8650630544       -0.0092982460
 H          7.4617159580       -0.0135165720        1.7166262632
 H          7.1909908088        2.2773234877        2.5915526666
 H          5.3666812041        3.7156529759        1.7632026726
 H          3.7991266851        2.8360167309        0.0319438488
 H          1.4788857150        0.9603592474       -1.2821800875
 H          3.3368482968       -0.6776902515        1.3703789780
 H          2.3777793243       -2.5213596438        2.7065656209
 H          0.0953801239       -3.3291304005        2.2495679781
 C         -1.6361690588       -2.4607558803        0.3448087599
 H         -1.9477946530       -3.0950073383        1.1892657999
 C         -1.6987956140       -3.3220809054       -0.9113106800
 C         -0.5935562148       -3.4201480926       -1.9158252512
 C         -0.8751023787       -4.5725445845       -1.0019842771
 H         -1.3268215947       -5.4635263899       -1.4108746213
 H         -0.1684783827       -4.7586852471       -0.2071082800
 H         -0.8713104904       -3.4990079741       -2.9561293157
 H          0.3079082173       -2.8490504117       -1.7541156852
 H         -2.7071690704       -3.3784851017       -1.3090665154
 O         -2.2746025001       -0.6422540379       -1.9196943318
