  62
        -98.94011706
 C         -1.5086648462       -1.5150135995       -0.1174376291
 C         -1.5525188528       -0.1194743637       -0.3412464415
 C         -2.8934392296        0.4800356352       -0.4766697878
 C         -3.9821819027       -0.3063159272       -0.3861040979
 C         -5.4561021318        0.0140098636       -0.5257127013
 C         -5.9469034420        1.4589737876       -0.4901131759
 C         -5.7907096468        2.1545548671        0.8619937982
 H         -6.4914839176        1.7012549070        1.5678431782
 H         -6.0728871243        3.2028042164        0.7416574999
 C         -4.3989385021        2.0820963308        1.4854887724
 H         -4.1459179957        1.0410213512        1.6964153782
 H         -4.4361384726        2.6038927622        2.4457299690
 C         -3.2768524995        2.7079796986        0.6595843401
 H         -2.3785827390        2.7186426644        1.2826476434
 H         -3.5318053800        3.7418937638        0.4191117536
 C         -2.9245388401        1.9717663239       -0.6443158911
 H         -1.9101866277        2.2633716781       -0.9317424481
 H         -3.5927269710        2.2570566449       -1.4530929840
 H         -7.0147051038        1.4302732148       -0.7240457412
 H         -5.4692435462        2.0378604335       -1.2748917359
 H         -5.7681953165       -0.4340026774       -1.4756976736
 H         -5.9609007164       -0.5550097545        0.2615470374
 O         -3.8846459729       -1.6538503811       -0.1781892321
 C         -2.6632449708       -2.2869905179       -0.0270442866
 O         -2.7398358273       -3.5145184675        0.1855801337
 H          2.4451474089       -1.2911674294       -0.0601085195
 C          1.9505288136       -1.0821194820        0.8725266423
 C          0.6479204842       -1.4992284983        1.0915477246
 C          0.0673470823       -1.2474477668        2.3325491107
 C          0.7646008125       -0.5719502729        3.3145071361
 C          2.0510829202       -0.1192264098        3.0769795390
 C          2.6444772747       -0.3790198248        1.8483014375
 N          3.9482667822        0.0559780504        1.5793113176
 S          4.4260971846        0.4381788375        0.0266458494
 O          4.6840320855       -0.7679395932       -0.7209291870
 O          5.5687044313        1.3077539775        0.2175215159
 C          3.0960444888        1.3565413036       -0.7270975432
 C          2.6007727250        2.4667322000       -0.0746536835
 C          1.5912600593        3.2000141783       -0.6743670090
 C          1.0990574175        2.8157675517       -1.9108808080
 C          1.6086871925        1.7006991953       -2.5546423580
 C          2.6163837268        0.9618289523       -1.9582655545
 H          3.0359335677        0.0824715367       -2.4220630001
 H          1.2165099098        1.3976810843       -3.5129181298
 H          0.3079043902        3.3846065545       -2.3740934182
 H          1.1847765697        4.0639267337       -0.1731106581
 H          3.0045398169        2.7450053681        0.8855695556
 H          4.3485522210        0.6764504692        2.2665755551
 H          2.5911638842        0.4258390288        3.8359497841
 H          0.2989625066       -0.3820137545        4.2700268431
 H         -0.9461489720       -1.5814536149        2.5113351376
 C         -0.1645039001       -2.2029651227        0.0326520447
 H         -0.3745055977       -3.2276577060        0.3723652621
 C          0.5306403032       -2.2625313480       -1.3117617481
 C          1.5192106131       -3.3488703578       -1.6069372246
 C          0.1768056031       -3.3546433521       -2.2736041194
 H          0.1208081533       -3.1182484959       -3.3255943734
 H         -0.5533981592       -4.0825586943       -1.9504941108
 H          1.7043097285       -4.0795306594       -0.8338873261
 H          2.3919451570       -3.1086777442       -2.1961612046
 H          0.7176622371       -1.2761720743       -1.7219906807
 O         -0.5235551289        0.5967944244       -0.4280701716
