  62
        -98.94681965
 C         -1.7507255397       -1.3816643103       -0.0470432516
 C         -2.8869079598       -0.7392016810        0.5038435589
 C         -3.3367733701        0.4827989394       -0.1732297703
 C         -2.6527086503        0.9324716703       -1.2406316200
 C         -2.9729637406        2.1873654607       -1.9991001092
 C         -2.1926884309        3.3870759105       -1.4454081484
 C         -2.2825489609        3.5382616995        0.0732532717
 H         -1.7519702907        2.7055057493        0.5424968311
 H         -1.7332746311        4.4443809694        0.3404754523
 C         -3.7130407309        3.6265874788        0.6238053317
 H         -4.4013052810        3.8982311191       -0.1777835581
 H         -3.7492781611        4.4253193383        1.3677520923
 C         -4.2133136806        2.3556888482        1.3129935609
 H         -3.4694137205        2.0205523879        2.0408691607
 H         -5.1238725806        2.6039542176        1.8652341411
 C         -4.5447907503        1.1791687387        0.3863776102
 H         -5.0770661401        0.4288781382        0.9786380897
 H         -5.2044044304        1.5162849791       -0.4159122096
 H         -1.1380971809        3.2665675209       -1.7049079985
 H         -2.5645337511        4.2935048907       -1.9277892678
 H         -4.0429920807        2.3780948704       -1.9399005291
 H         -2.6961476806        2.0377658914       -3.0443268893
 O         -1.5598106701        0.3014342109       -1.7332983305
 C         -1.0569962998       -0.8412710594       -1.1300836112
 O         -0.0155285197       -1.2722587688       -1.6612437915
 O         -3.4953480897       -1.1689440318        1.5220203486
 C         -1.2161249693       -2.6109525306        0.6677265376
 C          0.2647002906       -2.4471170504        0.9037381377
 C          1.2213831909       -3.3983204600        0.5751533771
 C          2.5648260608       -3.1499227698        0.8023251772
 C          2.9842058105       -1.9423288300        1.3289567480
 C          2.0331992903       -0.9837449705        1.6591566986
 C          0.6887546903       -1.2550583707        1.4791455985
 H         -0.0372204899       -0.4994204410        1.7439900690
 N          2.3961960599        0.2907256293        2.1499136895
 S          2.1010736196        1.5666070699        1.0964472903
 O          2.5620550693        2.7498187696        1.7922964411
 O          0.7191440896        1.5599139198        0.6959232703
 C          3.1879072297        1.2332987511       -0.2787480099
 C          4.4297466295        1.8405699714       -0.2932878596
 C          5.3221231696        1.5225638023       -1.3035457798
 C          4.9637163498        0.5958928829       -2.2715681804
 C          3.7160668199       -0.0067465775       -2.2395223508
 C          2.8140730199        0.3096570916       -1.2339794705
 H          1.8366992100       -0.1470708986       -1.1964032808
 H          3.4292794901       -0.7284775570       -2.9875089312
 H          5.6593442298        0.3420116636       -3.0558811706
 H          6.2919223095        1.9927667726       -1.3307701795
 H          4.6621820393        2.5547217110        0.4803715709
 H          3.3570353999        0.3445498694        2.4619275495
 H          4.0338932905       -1.7362713698        1.4759651181
 H          3.2967783610       -3.8989810794        0.5417529167
 H          0.9194552511       -4.3276944497        0.1210758364
 H         -1.7175998993       -2.5900272814        1.6507184376
 C         -1.5904745190       -3.9357956903        0.0205237567
 C         -2.7765908390       -4.0444382700       -0.8892259033
 C         -1.3927801690       -4.1949272593       -1.4420468434
 H         -1.0701627587       -5.1791386390       -1.7487282541
 H         -0.9864768292       -3.3933597188       -2.0379649829
 H         -3.4025225888       -4.9208987202       -0.8130792039
 H         -3.3202619592       -3.1375842300       -1.1123623227
 H         -1.4260181688       -4.7745794007        0.6899881862
