  62
        -98.93715783
 C         -2.5624362599       -1.2358064863       -0.3563026337
 C         -1.9887231815        0.0008809114       -0.7483426953
 C         -2.9124987985        1.1466940034       -0.8099710006
 C         -4.2122558793        0.9730533370       -0.5149831103
 C         -5.2425630102        2.0635134973       -0.4860177115
 C         -5.3524802956        2.6836736448        0.9139681862
 C         -4.0062249022        3.0684759305        1.5282826355
 H         -4.2104952331        3.5224941514        2.5004572126
 H         -3.4242735741        2.1625290500        1.7150673049
 C         -3.1729371267        4.0371879207        0.6776059710
 H         -2.7677242968        4.8146135708        1.3287514356
 H         -3.8123577847        4.5293478459       -0.0562879240
 C         -1.9837694478        3.3935401587       -0.0382509418
 H         -1.3487081086        4.1942011751       -0.4273037388
 H         -1.3848568041        2.8247539093        0.6788716559
 C         -2.3332582326        2.4731548217       -1.2144615286
 H         -3.0030064723        2.9933432685       -1.9023389691
 H         -1.4030507339        2.2460587821       -1.7434590454
 H         -5.8355541864        1.9612324526        1.5759123103
 H         -5.9906842058        3.5668809368        0.8513450438
 H         -4.9767415483        2.8278007361       -1.2135934205
 H         -6.2072661723        1.6329043716       -0.7595365211
 O         -4.7297659279       -0.2286348097       -0.1545122444
 C         -3.9210893956       -1.3460403160       -0.0404347629
 O         -4.5227475385       -2.3692737210        0.3423654248
 H          0.8271802142       -1.9051272881       -0.8835717581
 C          0.6850676932       -1.8893734381        0.1856054782
 C         -0.5583231527       -2.1947648905        0.7141558715
 C         -0.7321354907       -2.1381345833        2.0933517545
 C          0.3167006162       -1.7860673116        2.9230762898
 C          1.5534354278       -1.4659690729        2.3915933971
 C          1.7298681287       -1.5040557290        1.0152140608
 N          2.9774015673       -1.1537295231        0.4658337103
 S          3.7261240661        0.2121402066        1.1248345408
 O          4.5413865308       -0.2177492522        2.2358170039
 O          2.7507030497        1.2347630330        1.4259620493
 C          4.7679749495        0.7243213259       -0.2272417187
 C          4.2162541113        1.5138495289       -1.2189031659
 C          5.0099476227        1.8973963426       -2.2882320226
 C          6.3328880001        1.4846222592       -2.3488018537
 C          6.8712199643        0.6915456498       -1.3466682416
 C          6.0833959904        0.3047029478       -0.2738405418
 H          6.4582612567       -0.3047797892        0.5317413593
 H          7.9002977617        0.3745319109       -1.3973369800
 H          6.9474790658        1.7854758523       -3.1824935199
 H          4.5934566777        2.5145550966       -3.0681269252
 H          3.1845623163        1.8169255050       -1.1284943588
 H          2.9283499844       -1.0810947648       -0.5416973999
 H          2.3756696584       -1.1630239684        3.0207709939
 H          0.1686495328       -1.7486169573        3.9921896070
 H         -1.7062920715       -2.3604005072        2.5080654982
 C         -1.7401577570       -2.5026909097       -0.1701285762
 H         -2.4037640312       -3.1893560121        0.3786154908
 C         -1.3507887810       -3.2158158908       -1.4564729877
 C         -2.3519922773       -3.3733069603       -2.5612609593
 C         -1.1408486066       -2.5159005784       -2.7637370271
 H         -0.3598152274       -2.8826937294       -3.4140338334
 H         -1.2660229152       -1.4456378934       -2.7938954467
 H         -2.4093175509       -4.3199738165       -3.0767847082
 H         -3.3076698722       -2.8854577610       -2.4331182882
 H         -0.7123033860       -4.0714600393       -1.2574107420
 O         -0.7780127355        0.1646325209       -1.0485099259
