  62
        -98.93759492
 C         -1.7635219794       -0.2436849734       -0.3228070393
 C         -2.9418575403       -0.5690309083       -1.0299013046
 C         -4.2152000758       -0.4635325224       -0.2908494420
 C         -4.1826427908       -0.0844187242        1.0006064137
 C         -5.3423527592        0.1279842430        1.9370295484
 C         -6.0896351588        1.4438146866        1.6654334640
 C         -6.3515782739        1.7428069896        0.1916488462
 H         -6.7816788915        2.7458450193        0.1276834434
 H         -5.4010007848        1.7636913468       -0.3443632011
 C         -7.3080789601        0.7798705119       -0.5076531937
 H         -8.2705728906        0.7924608667        0.0087768697
 H         -7.4696766192        1.1605658571       -1.5194662660
 C         -6.8351153607       -0.6711308852       -0.6171255252
 H         -7.4887777284       -1.1729634092       -1.3367468309
 H         -6.9567503245       -1.1957020501        0.3267587030
 C         -5.4098091777       -0.8397517236       -1.1342297011
 H         -5.2598442827       -1.8924816352       -1.4038026173
 H         -5.3015185092       -0.2859325525       -2.0738530792
 H         -7.0358630300        1.4215732886        2.2086256579
 H         -5.4880420839        2.2621204651        2.0682974017
 H         -6.0197326422       -0.7195521441        1.8908590671
 H         -4.9265063506        0.1665951510        2.9462237694
 O         -3.0174032526        0.2108676002        1.6452204232
 C         -1.7880108439        0.1412053159        1.0170474951
 O         -0.8186907117        0.4376819894        1.7401738088
 H          2.2253438418       -0.0701249402       -0.3185973945
 C          1.8036038237       -1.0211949938       -0.0412232271
 C          0.4799463666       -1.3094965204       -0.3321979631
 C         -0.0246564686       -2.5569086146        0.0281660823
 C          0.7697432035       -3.4796995292        0.6789002569
 C          2.0899559982       -3.1853460720        0.9725027205
 C          2.6077373007       -1.9496832331        0.6069963177
 N          3.9341818828       -1.6132880919        0.9083755737
 S          4.8477989336       -0.7065204454       -0.1556759506
 O          4.5310916610       -1.0154357249       -1.5305845748
 O          6.2174424477       -0.9497630078        0.2458905967
 C          4.4366007625        0.9878638494        0.2042787550
 C          4.4210748430        1.9011068334       -0.8314522355
 C          4.1420919360        3.2296131220       -0.5512813798
 C          3.8852539579        3.6195923893        0.7538841736
 C          3.9080182582        2.6906126601        1.7829786483
 C          4.1903249070        1.3616767119        1.5102699081
 H          4.2092640700        0.6149426759        2.2863402620
 H          3.7033946157        2.9965738104        2.7963918308
 H          3.6640826741        4.6529583563        0.9700184597
 H          4.1240249250        3.9538372335       -1.3503642688
 H          4.6155315145        1.5514903145       -1.8331135524
 H          4.4750838011       -2.3416074082        1.3503952011
 H          2.7125801453       -3.9046673775        1.4825952781
 H          0.3611094909       -4.4397372831        0.9568731986
 H         -1.0547678006       -2.7904109104       -0.2048828720
 C         -0.4262060763       -0.3287074399       -1.0340300049
 H         -0.6504069520       -0.7291158162       -2.0344653448
 C          0.1745602550        1.0530785729       -1.1855245192
 C          1.0920138771        1.3602181218       -2.3298936839
 C         -0.2947691565        1.9271243101       -2.3083665482
 H         -0.4176282707        2.9834662462       -2.1231645326
 H         -1.0289467699        1.5133208052       -2.9842515321
 H          1.9213039537        2.0288591623       -2.1557598760
 H          1.3096213652        0.5633390888       -3.0252378664
 H          0.3721751320        1.5269482674       -0.2301654223
 O         -2.9389195014       -0.9360871645       -2.2371322423
