  62
        -98.93526430
 C         -2.3035516217       -0.7150494170       -0.1657702385
 C         -3.5647475434       -0.9562941649        0.4269290711
 C         -4.4932201587        0.1851058756        0.4968755004
 C         -4.1022106468        1.3826326562        0.0221019876
 C         -4.8074989527        2.7228971125       -0.0027852591
 C         -6.3060458653        2.8233326764        0.2706050608
 C         -7.1952760407        2.1901400093       -0.7991544150
 H         -7.1244597848        2.7910792816       -1.7092777038
 H         -8.2299347864        2.2331001231       -0.4520723158
 C         -6.8553151975        0.7491727033       -1.1714850456
 H         -5.8568482693        0.7097217967       -1.6116556478
 H         -7.5600863075        0.4283384986       -1.9433834185
 C         -6.9321443608       -0.2575782231       -0.0255384765
 H         -6.8253220714       -1.2562369908       -0.4574427290
 H         -7.9140233196       -0.2016518998        0.4483124434
 C         -5.8538709094       -0.1066993263        1.0615527873
 H         -5.7682224050       -1.0624351295        1.5868432744
 H         -6.1340718548        0.6443072881        1.7962924547
 H         -6.5438105850        3.8899823594        0.3077656922
 H         -6.5382085300        2.4160224679        1.2501473421
 H         -4.5940266342        3.1524179380       -0.9868201286
 H         -4.2794042274        3.3482956246        0.7257453921
 O         -2.8619320501        1.5731431101       -0.5173821203
 C         -1.9393410667        0.5463323090       -0.6319994927
 O         -0.8634130063        0.8836500281       -1.1624844307
 O         -3.9026551584       -2.0800812564        0.8866219170
 C         -1.3101407768       -1.8602851440       -0.2608199981
 C         -0.1165368195       -1.5314144414        0.6009464958
 C         -0.2884249880       -1.4839717499        1.9825056989
 C          0.7601008474       -1.1387575111        2.8121807942
 C          2.0038107606       -0.8335397465        2.2853135950
 C          2.1842540075       -0.8720036388        0.9102122833
 C          1.1281198892       -1.2257156905        0.0772764007
 H          1.2796974607       -1.2400661314       -0.9904766589
 N          3.4473243855       -0.5915833316        0.3528924226
 S          4.3407904811        0.7003989946        0.9709718973
 O          4.8702613241        0.3172178056        2.2562416734
 O          3.5627807656        1.9196134970        0.9474218130
 C          5.6621308921        0.7732416626       -0.2220032896
 C          6.7157154519       -0.1120885049       -0.0944215348
 C          7.7335254494       -0.0811969297       -1.0341162816
 C          7.6810224605        0.8288190411       -2.0796753508
 C          6.6177078487        1.7117088467       -2.1936960577
 C          5.5951126498        1.6848954111       -1.2581023251
 H          4.7524764597        2.3566907496       -1.3035665652
 H          6.5804601991        2.4196668032       -3.0060517720
 H          8.4747460482        0.8521931017       -2.8096042974
 H          8.5629812633       -0.7644373332       -0.9483358549
 H          6.7173560082       -0.7945004666        0.7391963982
 H          3.3958868380       -0.5194275360       -0.6548852005
 H          2.8263213155       -0.5523049675        2.9222180977
 H          0.6119398697       -1.1034163309        3.8813318364
 H         -1.2622153694       -1.7118170681        2.3943258403
 H         -1.8214881040       -2.7264015727        0.1819332225
 C         -0.9723226958       -2.1765190308       -1.7017292647
 C         -0.3760926280       -3.5068242488       -2.0495274213
 C         -1.7903600698       -3.1956016520       -2.4344998578
 H         -2.0164051314       -3.0213753990       -3.4758341872
 H         -2.5886476192       -3.6782480293       -1.8900847836
 H          0.3695499627       -3.5512765531       -2.8286440637
 H         -0.2118678745       -4.2036687064       -1.2417593534
 H         -0.6478290951       -1.3068220626       -2.2613638909
