  62
        -98.93606704
 C         -1.6811639595       -0.1715163202        0.3336591098
 C         -2.7978589295       -0.8849319004        0.8359820796
 C         -4.1225323495       -0.2628791004        0.6670342998
 C         -4.2109525696        0.9472219197        0.0851704900
 C         -5.4046297896        1.8400916698       -0.1825448298
 C         -6.8265178496        1.2935617097       -0.0839911699
 C         -7.1906661395        0.2626106699       -1.1517920201
 H         -8.1860169095       -0.1260490702       -0.9258033402
 H         -7.2429587896        0.7682467201       -2.1194116600
 C         -6.2212301395       -0.9079347300       -1.2958997804
 H         -5.2465237095       -0.5382216499       -1.6214789903
 H         -6.5986250395       -1.5586499599       -2.0895147405
 C         -6.0366980195       -1.7620443403       -0.0429597805
 H         -5.4570012695       -2.6439635002       -0.3287877607
 H         -7.0097464395       -2.1041546804        0.3145691894
 C         -5.2976087195       -1.0798750805        1.1215179496
 H         -5.9752030695       -0.4772824806        1.7216131597
 H         -4.8932008795       -1.8626996706        1.7697802994
 H         -7.4970134496        2.1482268597       -0.2089158097
 H         -7.0085698495        0.8940213495        0.9092829300
 H         -5.2480732896        2.2528937500       -1.1843488097
 H         -5.3075217596        2.6805127996        0.5137684804
 O         -3.1020952896        1.6205271999       -0.3380093799
 C         -1.8208368296        1.0940761399       -0.2347514800
 O         -0.9352255696        1.8500045500       -0.6741266998
 O         -2.6930890995       -1.9981964705        1.4161100694
 C         -0.3139630395       -0.8126638402        0.4891839296
 C          0.6817253805        0.1836625097        1.0234725498
 C          0.5380842505        0.6422465394        2.3307305399
 C          1.4201779504        1.5655730193        2.8564511601
 C          2.4784332004        2.0348810195        2.0975969002
 C          2.6287027604        1.5856775798        0.7916920101
 C          1.7334636105        0.6659876099        0.2617632699
 H          1.8440269605        0.3717894201       -0.7677972201
 N          3.6894429504        2.0406639400       -0.0024740298
 S          4.4074948304        1.0218735102       -1.1091498800
 O          5.7472125404        1.5494345303       -1.2647085499
 O          3.6276783804        0.9374212304       -2.3178861300
 C          4.4727795305       -0.5749732400       -0.3130518704
 C          5.0556700305       -0.6676511002        0.9354312396
 C          5.0999153505       -1.9006668703        1.5651490394
 C          4.5669438006       -3.0165059302        0.9380568291
 C          3.9945895105       -2.9097770500       -0.3197405108
 C          3.9445902305       -1.6775623698       -0.9523428206
 H          3.5017691105       -1.5477680596       -1.9271450905
 H          3.5830526006       -3.7791201599       -0.8078210710
 H          4.5984430206       -3.9752928903        1.4309604689
 H          5.5471229305       -1.9877285905        2.5421506693
 H          5.4686692405        0.2155398497        1.3944253498
 H          4.3553633104        2.6387856299        0.4625348803
 H          3.1712688404        2.7548350494        2.5058528203
 H          1.2902171304        1.9185803091        3.8683471802
 H         -0.2865777095        0.2729164893        2.9249670298
 H         -0.4651245795       -1.5870318304        1.2597177195
 C          0.1852094405       -1.5325922500       -0.7542028105
 C         -0.7666507595       -2.1995449398       -1.6998798007
 C         -0.0064760795       -0.9841193697       -2.1349413004
 H          0.7954031005       -1.0991133395       -2.8504769904
 H         -0.5363265995       -0.0494041897       -2.2350480902
 H         -0.4924693295       -3.1567538097       -2.1168486809
 H         -1.8236285095       -2.0949582499       -1.5025943706
 H          1.1203963205       -2.0513536300       -0.5652064206
