  62
        -98.93678026
 C          2.4173265716        1.2429982910        0.0951255013
 C          2.2912729163       -0.0468557629       -0.4772684629
 C          3.5520403086       -0.6990701093       -0.8698621929
 C          4.7205835365       -0.0666977662       -0.6629456799
 C          6.0744154183       -0.6382877645       -0.9672829598
 C          6.6485035160       -1.3832341026        0.2460438117
 C          5.6740767874       -2.3764197618        0.8792723300
 H          6.1974586703       -2.8642247895        1.7043690499
 H          4.8343086644       -1.8270941390        1.3111597085
 C          5.1365246307       -3.4419126027       -0.0861019176
 H          5.7771620249       -3.5015656982       -0.9666363006
 H          5.1741892529       -4.4144092952        0.4091098342
 C          3.6882055536       -3.2241608422       -0.5283613055
 H          3.0541399696       -3.0692765874        0.3485051418
 H          3.3426418174       -4.1353446448       -1.0240688120
 C          3.4545668002       -2.0602270205       -1.4997268888
 H          4.1391493341       -2.1433410786       -2.3465564595
 H          2.4303331963       -2.1435090544       -1.8760430270
 H          7.5527594572       -1.9076954502       -0.0677514721
 H          6.9273158650       -0.6471666887        1.0035098426
 H          5.9947579178       -1.3127799831       -1.8175532839
 H          6.7434031552        0.1835765310       -1.2277701518
 O          4.8030494719        1.1635585358       -0.0948141863
 C          3.6633349932        1.8380165975        0.3108188288
 O          3.8870768937        2.9402165921        0.8491977619
 H         -1.4243209987        1.3916981592       -0.0507251237
 C         -1.0628617130        0.9248774288        0.8492924458
 C          0.2372315880        1.1350295852        1.2805267210
 C          0.6705787618        0.4914220060        2.4370198339
 C         -0.1699639193       -0.3581655245        3.1287056414
 C         -1.4617515372       -0.5790567041        2.6854389504
 C         -1.9096509373        0.0698407422        1.5405404440
 N         -3.2372039541       -0.1042275915        1.1116497212
 S         -3.6655367334        0.0153660391       -0.5139884442
 O         -2.9328373550       -0.9359871963       -1.3182047962
 O         -3.5903636262        1.3966933940       -0.9186412234
 C         -5.3761967230       -0.4788327066       -0.3965218384
 C         -5.7244975652       -1.7887783843       -0.6661990159
 C         -7.0518631910       -2.1691562952       -0.5451328790
 C         -8.0034418127       -1.2385985483       -0.1558703121
 C         -7.6393853452        0.0731187767        0.1099935918
 C         -6.3141013451        0.4597332243       -0.0102844699
 H         -5.9856361649        1.4686916951        0.1767027467
 H         -8.3825809430        0.7945333372        0.4090678509
 H         -9.0356630848       -1.5369757098       -0.0622696748
 H         -7.3380449059       -3.1872305556       -0.7549605945
 H         -4.9522063242       -2.4748738062       -0.9755690638
 H         -3.6762176059       -0.9115385018        1.5331880230
 H         -2.1171508642       -1.2495510153        3.2204793866
 H          0.1840397195       -0.8592124013        4.0174412782
 H          1.6851743030        0.6559792734        2.7758798659
 C          1.2050762844        2.0360169490        0.5529748729
 H          1.5990919043        2.7639723706        1.2823652488
 C          0.5449745409        2.8456879602       -0.5532016653
 C          1.3293576494        3.3575224825       -1.7230881075
 C          0.3047963667        2.2827804957       -1.9204272406
 H         -0.6215283798        2.5305601358       -2.4192977683
 H          0.6391968305        1.2749699408       -2.1115836223
 H          1.1130445855        4.3498578290       -2.0890754360
 H          2.3734216891        3.0865343978       -1.7845110152
 H         -0.2215173743        3.5102663221       -0.1648752861
 O          1.1945607463       -0.6380333799       -0.6555993091
