  62
        -98.94608858
 C         -1.9362020403       -1.2822811443        0.2717230197
 C         -1.7266081376        0.1046436205        0.0873883009
 C         -2.8826301548        0.9684756796        0.3666772610
 C         -4.0373751902        0.4124605212        0.7769268057
 C         -5.3068722138        1.1683183523        1.0399875900
 C         -6.1775464598        1.2475449426       -0.2218977849
 C         -5.4202453963        1.7087778260       -1.4672309313
 H         -4.6800576639        0.9513697023       -1.7356565170
 H         -6.1408735001        1.7569284577       -2.2865371657
 C         -4.7227241019        3.0681924040       -1.3189084750
 H         -4.9189919650        3.6617385417       -2.2143276172
 H         -5.1449493299        3.6106849914       -0.4722423399
 C         -3.2031380797        2.9872094131       -1.1624746814
 H         -2.7853985296        2.3666493762       -1.9594607104
 H         -2.7951654210        3.9941409822       -1.2846814529
 C         -2.6990432508        2.4485549090        0.1822338848
 H         -1.6196585992        2.6207835199        0.2239714669
 H         -3.1684400009        3.0003247848        0.9991239373
 H         -7.0079977088        1.9282560124       -0.0259745252
 H         -6.5907740636        0.2559236943       -0.4205782237
 H         -5.8623041391        0.6466027187        1.8211597400
 H         -5.0622888977        2.1698234805        1.3884371619
 O         -4.1947507714       -0.9241133128        0.9570554939
 C         -3.1547572987       -1.8038069687        0.7055632244
 O         -3.4312060165       -3.0029993296        0.9106922047
 H          1.8134574850       -1.8791172131       -0.8328654261
 C          1.6674590233       -1.7396946109        0.2246104485
 C          0.4131785634       -1.8845375799        0.7950124167
 C          0.2796867508       -1.6958299026        2.1690458938
 C          1.3695908489       -1.3550735532        2.9454649898
 C          2.6165518371       -1.1867684570        2.3676297924
 C          2.7626877272       -1.3804928860        1.0003049002
 N          4.0214682747       -1.2443612219        0.3852564231
 S          4.2181709850       -0.1957815102       -0.9055017943
 O          3.3521831053       -0.5794064205       -1.9890956052
 O          5.6381571984       -0.2237853840       -1.1824975846
 C          3.7758866378        1.4094655640       -0.2640428423
 C          2.4455432050        1.7378654874       -0.0960358390
 C          2.1327140585        2.9693209067        0.4596958274
 C          3.1402944660        3.8436710654        0.8348543484
 C          4.4714790445        3.4964201411        0.6590371333
 C          4.7937468481        2.2667335276        0.1094945641
 H          5.8136441446        1.9552572199       -0.0492441551
 H          5.2554470696        4.1772680702        0.9493437212
 H          2.8859537446        4.7996907878        1.2649929252
 H          1.0944034572        3.2280141380        0.5943502114
 H          1.6664263342        1.0522196915       -0.3897017353
 H          4.7798608691       -1.1079936665        1.0391623269
 H          3.4687357754       -0.9129932547        2.9711649941
 H          1.2480676032       -1.2113677053        4.0085132084
 H         -0.6969953326       -1.8182119316        2.6182033040
 C         -0.8074911517       -2.2572734163       -0.0101977184
 H         -1.1592104271       -3.2403940245        0.3359337748
 C         -0.5477023914       -2.3331570978       -1.5005179798
 C          0.0059555429       -3.5865474139       -2.1061460899
 C         -1.4227467029       -3.2043731466       -2.3482626573
 H         -1.7050808666       -2.8536985468       -3.3297647935
 H         -2.1964260557       -3.7670978705       -1.8458348938
 H          0.7094500271       -3.4956732620       -2.9203484129
 H          0.2031501155       -4.4165599746       -1.4444395473
 H         -0.2314933966       -1.3850576266       -1.9220798100
 O         -0.6315838659        0.5982946789       -0.2872306784
