  62
        -98.93649297
 C         -1.5648328902       -1.4449124205        0.1562267592
 C         -2.7242624403       -1.0172154108        0.8456168892
 C         -3.4659738403        0.1186300293        0.2675742795
 C         -2.9774920203        0.7347118896       -0.8247645203
 C         -3.5111130004        1.8924654498       -1.6432470100
 C         -4.6765622305        2.7365401796       -1.1350599298
 C         -4.3482504306        3.6142648893        0.0729954504
 H         -3.6785410506        4.4147782294       -0.2517522894
 H         -5.2732465106        4.0775823491        0.4227857105
 C         -3.6764353906        2.9015751590        1.2441525902
 H         -3.4730449407        3.6472715488        2.0178183705
 H         -2.7123804105        2.4995853092        0.9251060702
 C         -4.4942985505        1.7811000188        1.8827599599
 H         -5.4711684706        2.1646963786        2.1837561300
 H         -3.9688095305        1.4617895886        2.7872376599
 C         -4.7056898804        0.5356398190        1.0059179396
 H         -4.9644145803       -0.2981405212        1.6654743493
 H         -5.5352380704        0.6751971091        0.3167685796
 H         -5.5365909104        2.1061978394       -0.9289069600
 H         -4.9618912905        3.4009001898       -1.9552240097
 H         -3.7904575603        1.4641312700       -2.6120843001
 H         -2.6546251104        2.5477302699       -1.8322086098
 O         -1.8227436003        0.3217684999       -1.4234906504
 C         -1.0937158302       -0.7706715002       -0.9706876706
 O         -0.0767580302       -1.0097858299       -1.6426195206
 O         -3.1299464303       -1.5623594911        1.9075922791
 C         -0.7785112201       -2.6077061906        0.7349194389
 C          0.6898129098       -2.2618595505        0.7665636891
 C          1.6843802299       -3.0432256903        0.1952085089
 C          3.0077174999       -2.6378451602        0.2394614590
 C          3.3669073098       -1.4473769503        0.8422328194
 C          2.3780946197       -0.6555075005        1.4126651695
 C          1.0579818697       -1.0724509906        1.3849814194
 H          0.2900422397       -0.4504091908        1.8297795095
 N          2.7280687096        0.5758627293        1.9997147099
 S          3.6765937095        1.6044127796        1.0754013602
 O          5.0575737696        1.2061103297        1.1909704802
 O          3.3641367694        2.9337901395        1.5535341305
 C          3.1220230796        1.3957503900       -0.6058172999
 C          1.8434991996        1.8075837400       -0.9244918898
 C          1.3814698897        1.6229777103       -2.2161465199
 C          2.2014944797        1.0275695207       -3.1614622600
 C          3.4832819798        0.6219239207       -2.8271446001
 C          3.9515936397        0.8055438904       -1.5363195900
 H          4.9414358697        0.5046331304       -1.2341453400
 H          4.1161107598        0.1567024509       -3.5657854202
 H          1.8317546698        0.8735188609       -4.1626954001
 H          0.3793375296        1.9231621003       -2.4771364998
 H          1.2307926295        2.2672741198       -0.1640829297
 H          1.9385354595        1.0774481792        2.3801610400
 H          4.3907071798       -1.1118466102        0.8756864795
 H          3.7695701800       -3.2543523900       -0.2124496911
 H          1.4238591700       -3.9593799002       -0.3079626014
 H         -1.1308170702       -2.6851768309        1.7776602889
 C         -1.0717121700       -3.9490672005        0.0800259885
 C         -2.3750764999       -4.2018941704       -0.6153948016
 C         -1.1073075299       -4.1176121401       -1.4084304015
 H         -0.7079138098       -5.0279295899       -1.8310556617
 H         -0.9328472900       -3.2412733699       -2.0122856313
 H         -2.8434200099       -5.1666812305       -0.4897108619
 H         -3.0764481400       -3.3827683204       -0.6813278414
 H         -0.6702772999       -4.7776004706        0.6554173983
