  62
        -98.93852757
 C         -0.9824397403       -1.1699545999       -0.3698406595
 C         -2.0638870002       -1.3163071398        0.5373024606
 C         -2.9385047601       -0.1493688597        0.7305960408
 C         -2.6795831399        0.9808555004        0.0515773309
 C         -3.3999695697        2.3044099605        0.1162957812
 C         -4.9331226397        2.2767935507        0.1739933213
 C         -5.5905968500        1.1321187809       -0.6104411288
 H         -4.8511106001        0.6389295609       -1.2436493290
 H         -6.3580257399        1.5456780611       -1.2674933587
 C         -6.2581037200        0.0944615909        0.2951648111
 H         -6.9943294602       -0.4616497989       -0.2903835590
 H         -6.7990640899        0.6164087908        1.0875891212
 C         -5.3141181402       -0.9292896494        0.9246588608
 H         -4.9376148103       -1.6084217393        0.1549054107
 H         -5.8933698102       -1.5332951494        1.6273213408
 C         -4.0994753600       -0.3438360797        1.6633998308
 H         -3.7712557401       -1.0787266398        2.4033907907
 H         -4.3597191198        0.5764250703        2.1803785510
 H         -5.2807456196        3.2335055408       -0.2195595586
 H         -5.2593669096        2.2283038206        1.2118199513
 H         -3.0783038497        2.8438453905       -0.7773201988
 H         -3.0210498396        2.8534116403        0.9827086712
 O         -1.6387529800        1.0768294903       -0.8199750891
 C         -0.7656802102        0.0254849202       -1.0543215993
 O          0.1251756898        0.3024007102       -1.8817024994
 O         -2.2863385904       -2.3845474799        1.1678988504
 C         -0.0677482605       -2.3726752200       -0.5242252297
 C          1.1164742296       -2.2624370603        0.4070885802
 C          1.4053608095       -3.2689109205        1.3205547900
 C          2.4900962596       -3.1531545508        2.1718501400
 C          3.2994747898       -2.0328817909        2.1313364301
 C          3.0132124698       -1.0156145407        1.2258235002
 C          1.9312546098       -1.1395995504        0.3670958003
 H          1.7259465898       -0.3575728403       -0.3457428096
 N          3.7763295300        0.1552808992        1.2113023203
 S          3.8378893001        1.1924779594       -0.0908494095
 O          3.9844174899        0.4818530895       -1.3395265796
 O          4.9275716903        2.0904636191        0.2385994605
 C          2.3189641702        2.1187350496       -0.0427700693
 C          1.6441819704        2.2780979495        1.1505151908
 C          0.5013923705        3.0610294197        1.1720464710
 C          0.0614931905        3.6768928199        0.0110931111
 C          0.7503972304        3.5064576000       -1.1783206390
 C          1.8893126703        2.7188532398       -1.2082848692
 H          2.4407538002        2.5430656799       -2.1180856892
 H          0.3991726304        3.9720360102       -2.0852148589
 H         -0.8273992894        4.2876377201        0.0308609813
 H         -0.0434442594        3.1845382296        2.0948086211
 H          2.0056354503        1.7831340193        2.0371208707
 H          4.6147875701        0.1587236290        1.7709343003
 H          4.1423812298       -1.9378852011        2.7984488200
 H          2.7067734695       -3.9417760209        2.8762651398
 H          0.7663160594       -4.1379835104        1.3696995999
 H         -0.6663659506       -3.2365376399       -0.2033024298
 C          0.4071440694       -2.6196113498       -1.9421842698
 C          0.7898199091       -4.0100294298       -2.3487654800
 C         -0.4637165008       -3.3892258696       -2.8871116199
 H         -0.4907781709       -3.0868801294       -3.9231378798
 H         -1.4111939509       -3.7488011195       -2.5124085698
 H          1.6293618890       -4.1367239199       -3.0150226001
 H          0.6899574490       -4.7939762999       -1.6133436401
 H          0.9843354395       -1.8002008299       -2.3514540297
