  62
        -98.93452066
 C         -2.3113529383       -0.3984345441        0.1573177137
 C         -3.5083242407       -1.0062108609        0.6003531616
 C         -4.7031678579       -0.1459617402        0.6449480058
 C         -4.5892295978        1.1457291738        0.2896700475
 C         -5.6853445476        2.1721511189        0.2108292142
 C         -6.2590922382        2.2432672504       -1.2145869780
 C         -7.3887597493        1.2556504173       -1.5043102954
 H         -8.2856714958        1.5690573901       -0.9659798286
 H         -7.6089865058        1.3185475311       -2.5724553044
 C         -7.0905691594       -0.2034659751       -1.1492775382
 H         -7.7742111428       -0.8334689173       -1.7217084608
 H         -6.0769423545       -0.4592735613       -1.4634688274
 C         -7.2677271347       -0.5092738945        0.3454728305
 H         -7.7894151397        0.3220811047        0.8191658528
 H         -7.9103749019       -1.3844293492        0.4612833227
 C         -5.9706472662       -0.8085177715        1.1121980759
 H         -5.7562477812       -1.8805772066        1.0607675902
 H         -6.1190092306       -0.5709677472        2.1708465441
 H         -6.6386841268        3.2519322779       -1.3897742004
 H         -5.4360035054        2.0780229029       -1.9146599956
 H         -6.4635946558        1.9625058082        0.9384593374
 H         -5.2278637149        3.1343123357        0.4500026332
 O         -3.4108255434        1.6959909007       -0.1144360414
 C         -2.2485499937        0.9486440319       -0.1972120600
 O         -1.2537344595        1.5872047480       -0.5895134737
 O         -3.5777828036       -2.2180287225        0.9429283186
 C         -1.0493303122       -1.2369822965        0.0712256050
 C          0.0248250289       -0.6456954002        0.9497350128
 C         -0.2535107943       -0.4426474946        2.2997799727
 C          0.6973714662        0.0964834272        3.1434009354
 C          1.9499643240        0.4361876213        2.6623405822
 C          2.2362467224        0.2427660564        1.3165046334
 C          1.2776327876       -0.3000844259        0.4710979813
 H          1.5284423130       -0.4400674499       -0.5665818457
 N          3.4856192402        0.6130582428        0.7946716334
 S          4.1422101149       -0.2670238283       -0.4847595663
 O          3.5535756802        0.1797701892       -1.7219729887
 O          4.0553760590       -1.6840728769       -0.2105224741
 C          5.8389307766        0.2762573260       -0.4000161964
 C          6.7900429214       -0.5381246319        0.1847379124
 C          8.0991855537       -0.0893256067        0.2644113120
 C          8.4321919919        1.1602846844       -0.2359823839
 C          7.4664906758        1.9664845246       -0.8207021437
 C          6.1563637490        1.5232202673       -0.9053329453
 H          5.3743658767        2.1098211767       -1.3590220149
 H          7.7295520827        2.9364940460       -1.2108390148
 H          9.4513351428        1.5075396495       -0.1727588553
 H          8.8528501918       -0.7147488562        0.7150552322
 H          6.4857508827       -1.5045105442        0.5533143816
 H          4.1728507842        0.8036531714        1.5108102855
 H          2.6942128044        0.8578181836        3.3206946630
 H          0.4657130727        0.2483932673        4.1870093428
 H         -1.2315245543       -0.7123423516        2.6753814858
 H         -1.3221387103       -2.2209154746        0.4816706171
 C         -0.6251274453       -1.4149039128       -1.3708137748
 C          0.2171378273       -2.5900791882       -1.7645295558
 C         -1.2212250042       -2.5258380870       -2.1798932384
 H         -1.4510592535       -2.3412771563       -3.2185511804
 H         -1.9257559922       -3.1775371174       -1.6840235941
 H          0.9830898226       -2.4456940262       -2.5121371441
 H          0.4948415426       -3.2868746054       -0.9878445896
 H         -0.4452738773       -0.4707016131       -1.8741977533
