  62
        -98.94013998
 C         -2.6263201225       -1.3129662126        0.0043374968
 C         -2.5492193160       -0.1844281783       -0.8463153571
 C         -3.8162305974        0.5221545749       -1.0849483838
 C         -4.9466292824        0.0605452311       -0.5191689451
 C         -6.2942322754        0.7101389220       -0.6395097324
 C         -6.5335499009        1.7084030795        0.5018224543
 C         -5.3786978384        2.6862486480        0.7190737715
 H         -5.6703723531        3.3602437392        1.5275055418
 H         -4.5013543094        2.1336010164        1.0635117810
 C         -5.0015747106        3.5087166145       -0.5209957770
 H         -4.8626897760        4.5496629653       -0.2215241799
 H         -5.8182252147        3.4854475340       -1.2434689003
 C         -3.7068727352        3.0673580846       -1.2065016094
 H         -2.9037688114        2.9990516075       -0.4675565021
 H         -3.4222062406        3.8405453407       -1.9253241590
 C         -3.7744813207        1.7373631424       -1.9678819506
 H         -4.6249993219        1.7479300916       -2.6525890979
 H         -2.8576604849        1.6469642309       -2.5579199235
 H         -6.6852611259        1.1473065839        1.4267871228
 H         -7.4478388174        2.2648871954        0.2880835552
 H         -7.0565021529       -0.0694353327       -0.5938897671
 H         -6.3630570151        1.2167416834       -1.6000796025
 O         -4.9826296971       -1.0387724739        0.2766158722
 C         -3.8264261442       -1.7428330198        0.5698960631
 O         -3.9939628357       -2.7159615248        1.3325235928
 O         -1.4804080581        0.2109973756       -1.3825211536
 C         -1.3710239164       -2.1035938794        0.3257396290
 C         -0.3352453439       -1.1962035578        0.9448303862
 C         -0.7082625255       -0.3833375191        2.0123454085
 C          0.2042048805        0.4674790444        2.6045197438
 C          1.5126442229        0.5221140934        2.1552024279
 C          1.8975988220       -0.2872770697        1.0962894145
 C          0.9751593687       -1.1412410119        0.5003343496
 H          1.2884791569       -1.7609265364       -0.3253430747
 N          3.2321902692       -0.2824109542        0.6478081385
 S          4.0555586822        1.1827976498        0.4959868516
 O          4.3470856355        1.6869771888        1.8144308994
 O          3.3401290280        2.0821807286       -0.3822835358
 C          5.5572150312        0.6152669638       -0.2775231938
 C          6.5412948187        0.0611175168        0.5189648728
 C          7.6993084299       -0.4103648837       -0.0782822991
 C          7.8528699999       -0.3212791504       -1.4539940903
 C          6.8569721865        0.2386748063       -2.2400029213
 C          5.6954303117        0.7110191915       -1.6490355913
 H          4.8986496383        1.1607628772       -2.2200246819
 H          6.9801440430        0.3087993433       -3.3088097937
 H          8.7554520216       -0.6881394618       -1.9167238064
 H          8.4771991170       -0.8440156164        0.5291000394
 H          6.3812559380        0.0208063630        1.5835620935
 H          3.3409693546       -0.8239622014       -0.1997234496
 H          2.2297407797        1.1889716235        2.6049474520
 H         -0.1032025539        1.0978804877        3.4259663633
 H         -1.7303001786       -0.4226711246        2.3659141120
 H         -1.6646773241       -2.8474743948        1.0807451287
 C         -0.8888677582       -2.8311474510       -0.9121790125
 C         -0.1186727804       -4.1104778182       -0.7863153845
 C         -1.5332499241       -4.1325059536       -1.2802609420
 H         -1.7141395257       -4.3409779671       -2.3240715963
 H         -2.3032516120       -4.5064616201       -0.6211545639
 H          0.6715325554       -4.3100515877       -1.4945153255
 H          0.0755096062       -4.4805646335        0.2089432614
 H         -0.6355543191       -2.1536318741       -1.7199093315
