  62
        -98.93884241
 C         -1.2127854225       -1.2043854665       -0.8717726905
 C         -2.5724591083       -1.3814751760       -0.4839987766
 C         -3.4475121002       -0.2084514390       -0.5492149483
 C         -2.9494597166        0.9671574050       -0.9690045743
 C         -3.7096455393        2.2577095361       -1.1098262990
 C         -3.8294049222        3.0513576511        0.1982087052
 C         -4.7999019251        2.4662419922        1.2250748470
 H         -4.9587131780        3.2313439320        1.9876635359
 H         -5.7620279536        2.2764915412        0.7478544059
 C         -4.3006543367        1.1860113712        1.9098477981
 H         -3.2207963651        1.0924626021        1.7667480136
 H         -4.4709574802        1.2595710979        2.9866237426
 C         -4.9801704777       -0.0974598738        1.4312541292
 H         -6.0391338026       -0.0716676506        1.6982128172
 H         -4.5208344029       -0.9409324380        1.9530933295
 C         -4.8626761730       -0.3527938288       -0.0767903620
 H         -5.1768579230       -1.3803588582       -0.2754531288
 H         -5.5159753539        0.3259769212       -0.6249300704
 H         -2.8362254604        3.1395388818        0.6463065153
 H         -4.1691705786        4.0573768809       -0.0594493524
 H         -3.1614557691        2.8654432789       -1.8329809171
 H         -4.7050187580        2.0561615775       -1.5071872377
 O         -1.6554662607        1.1035609261       -1.3459308000
 C         -0.7494512903        0.0493775180       -1.2815752050
 O          0.3938419872        0.3931079053       -1.6344901216
 O         -3.0431463670       -2.4875015005       -0.1009604615
 C         -0.3549418703       -2.4526336126       -0.7314195791
 C          0.5466403117       -2.4111425082        0.4825804823
 C          0.5808141156       -3.4858663593        1.3660393661
 C          1.3922896353       -3.4526159281        2.4856283336
 C          2.1694557523       -2.3408248933        2.7590094626
 C          2.1441995497       -1.2641463106        1.8807252352
 C          1.3558878524       -1.3159443229        0.7404407286
 H          1.3513436766       -0.4761281994        0.0685490917
 N          2.9238755903       -0.1223756112        2.1091050659
 S          2.3843801186        1.3828583734        1.6126711223
 O          3.1528869140        2.3142807371        2.4173828698
 O          0.9489014459        1.5056306545        1.7371778015
 C          2.9162877465        1.5457462154       -0.0771797175
 C          3.9274909134        0.7445561364       -0.5659835714
 C          4.3495715969        0.9261462600       -1.8731114002
 C          3.7637162946        1.9041141473       -2.6608686585
 C          2.7538852466        2.7043079453       -2.1517231319
 C          2.3237619136        2.5245204677       -0.8475649623
 H          1.5256405630        3.1114767653       -0.4206516315
 H          2.2906157868        3.4588310368       -2.7673832404
 H          4.0896165996        2.0388908099       -3.6803965598
 H          5.1291823260        0.2987173197       -2.2746527923
 H          4.3556966754       -0.0154099872        0.0664712545
 H          3.4006879111       -0.0848465689        2.9977143186
 H          2.7862405132       -2.3033374526        3.6439381823
 H          1.4079728379       -4.2931113929        3.1628323243
 H         -0.0473975766       -4.3443262592        1.1774620679
 H         -1.1049669532       -3.2354562699       -0.5344837581
 C          0.4345783505       -2.9534789438       -1.9383808056
 C          0.1988807885       -2.4761441581       -3.3373614225
 C          1.5028677787       -2.1878242548       -2.6557038479
 H          2.3804102197       -2.7302223768       -2.9758210674
 H          1.6894691220       -1.1699843012       -2.3573894223
 H          0.1685562094       -3.2039195284       -4.1348371909
 H         -0.4815974218       -1.6478592690       -3.4722855889
 H          0.6297637865       -4.0179670440       -1.8366273274
