  62
        -98.94077369
 C         -1.6328838566       -1.5433995546       -0.2220982584
 C         -2.8538275903       -1.3113332035        0.4561594321
 C         -3.6695677414       -0.1802583666       -0.0191729241
 C         -3.2119698086        0.5691339698       -1.0371337343
 C         -3.8373147648        1.8058239475       -1.6214584268
 C         -3.2875475855        3.0682187336       -0.9345836713
 C         -4.0493257431        3.5051559123        0.3153763717
 H         -3.4962372116        4.3348664352        0.7612269512
 H         -5.0307750081        3.8856972181        0.0247608147
 C         -4.2386084481        2.4163917417        1.3744713596
 H         -3.3117498808        1.8516760727        1.4916359535
 H         -4.4409325648        2.9070843487        2.3284505242
 C         -5.3955824980        1.4587075563        1.0538009258
 H         -6.0563397565        1.3855021284        1.9202476475
 H         -5.9941458831        1.8778501597        0.2452289582
 C         -4.9763507876        0.0255569365        0.6978033002
 H         -4.8836003808       -0.5630971453        1.6159623455
 H         -5.7724170335       -0.4422658210        0.1084811925
 H         -3.3078016808        3.8930766723       -1.6496390596
 H         -2.2429562599        2.8803221857       -0.6760868709
 H         -3.5531906390        1.8297345779       -2.6756485009
 H         -4.9201248914        1.7600990631       -1.5542974820
 O         -2.0301202850        0.3119465777       -1.6612310612
 C         -1.2167052267       -0.7441050291       -1.2861844672
 O         -0.1833096677       -0.8551739003       -1.9723708745
 H          1.7101141611       -2.2927333192       -0.9120726171
 C          1.6585969498       -1.8777953060        0.0815940920
 C          0.5049288278       -2.0253341082        0.8349648198
 C          0.4628031997       -1.4604810954        2.1071718274
 C          1.5474370796       -0.7665202689        2.6096573863
 C          2.6887274398       -0.5982672737        1.8441605595
 C          2.7340670497       -1.1486682741        0.5706216415
 N          3.8666835452       -0.9335181440       -0.2358450991
 S          4.4391420653        0.6382063881       -0.3092984747
 O          5.0372556274        0.7693034971       -1.6199455581
 O          5.3281074910        0.8724486360        0.8030660869
 C          3.0149704100        1.7070989473       -0.1623275364
 C          1.9429440220        1.5170669669       -1.0108574875
 C          0.8451319055        2.3549499637       -0.8998393775
 C          0.8363762066        3.3650250559        0.0490379785
 C          1.9224981765        3.5451895384        0.8916619170
 C          3.0221956396        2.7093290701        0.7872815874
 H          3.8849040346        2.8099522304        1.4257908120
 H          1.9135033183        4.3315217022        1.6291702173
 H         -0.0210823257        4.0150309138        0.1316426933
 H          0.0013600043        2.1959078346       -1.5535517831
 H          1.9466331028        0.7192781589       -1.7364441856
 H          3.7737040437       -1.3197545021       -1.1645245116
 H          3.5389456530       -0.0452280943        2.2096582681
 H          1.5021494694       -0.3408370984        3.6003958701
 H         -0.4410228419       -1.5610829830        2.6916843183
 C         -0.7373579492       -2.6684274332        0.2719917141
 H         -1.2880833415       -3.1430354838        1.0945972053
 C         -0.4717773719       -3.7036046749       -0.7997803348
 C          0.1105333966       -5.0288150417       -0.4111667345
 C         -1.3189729865       -4.9380523440       -0.8509293271
 H         -1.5886118863       -5.3376181967       -1.8171296352
 H         -2.0921137947       -5.0448322593       -0.1043091212
 H          0.8242082429       -5.4944303691       -1.0736656448
 H          0.3095885944       -5.1961969780        0.6365157551
 H         -0.1704009787       -3.2754587465       -1.7481728620
 O         -3.2434682903       -2.0167053604        1.4249851435
