  62
        -98.94514870
 C          1.5344023030        0.8117888094        0.0802636701
 C          2.8122231985        1.4141754431        0.1499404445
 C          3.9076696428        0.5357455067        0.5761043901
 C          3.6495557461       -0.7451904525        0.8976011589
 C          4.6577683896       -1.7582752886        1.3683534030
 C          5.4200978511       -2.4531616013        0.2317922031
 C          6.4590699482       -1.5864180050       -0.4808431409
 H          7.1237107322       -1.1362704460        0.2572456131
 H          7.0635440340       -2.2537485619       -1.0984809537
 C          5.8638517161       -0.4909019792       -1.3765281841
 H          6.3818769387       -0.4853146966       -2.3382930727
 H          4.8144439244       -0.7160214941       -1.5799285760
 C          5.9628836110        0.9220945090       -0.8014429295
 H          7.0127664800        1.2120949991       -0.7188902166
 H          5.4777495186        1.6101781530       -1.4985338184
 C          5.2991115756        1.0929623531        0.5712630200
 H          5.2303961367        2.1619101696        0.7882370838
 H          5.9040939807        0.6180082753        1.3433551824
 H          5.9333728638       -3.3156469302        0.6632357628
 H          4.6968063196       -2.8267156367       -0.4965402878
 H          5.3671151509       -1.2831674999        2.0465094555
 H          4.1007248917       -2.5163586590        1.9228916170
 O          2.3996929892       -1.2775890795        0.8474611551
 C          1.3142141402       -0.5233917973        0.4210288965
 O          0.2354120311       -1.1417250038        0.3977533469
 O          3.0256695785        2.6264721603       -0.1229985212
 C          0.3521800757        1.6375999193       -0.3907180749
 C         -0.7538386332        1.6007683447        0.6332631761
 C         -0.4498567652        1.8536592262        1.9689740896
 C         -1.4326698411        1.8083923350        2.9377242489
 C         -2.7391510140        1.5001695223        2.5992670689
 C         -3.0559863734        1.2621043462        1.2681240563
 C         -2.0686719267        1.3267451866        0.2935829504
 H         -2.3479915048        1.1622371891       -0.7325720719
 N         -4.3721036977        0.9686366799        0.8899010391
 S         -4.6973863113        0.0028188282       -0.4308498799
 O         -4.5107576981        0.7504093578       -1.6496777102
 O         -6.0438568161       -0.4733468493       -0.1921095805
 C         -3.5559736853       -1.3653832689       -0.3664348037
 C         -2.7882765134       -1.6613995318       -1.4730105241
 C         -1.9252857634       -2.7429452487       -1.4214663248
 C         -1.8428716762       -3.5043565904       -0.2678038507
 C         -2.6217852142       -3.1953841485        0.8354021282
 C         -3.4891264673       -2.1173747941        0.7885736353
 H         -4.1103721357       -1.8571423900        1.6304297141
 H         -2.5489985513       -3.7874199505        1.7336965394
 H         -1.1611386698       -4.3390376431       -0.2263020998
 H         -1.3123770094       -2.9817936027       -2.2764018275
 H         -2.8770150876       -1.0382307299       -2.3493658428
 H         -5.0170617351        0.8099171541        1.6491443193
 H         -3.5060577190        1.4504388568        3.3568769038
 H         -1.1798774691        2.0040023626        3.9690129554
 H          0.5732042529        2.0797057391        2.2375212154
 H          0.7230524884        2.6707995424       -0.4665422996
 C         -0.0869167320        1.1732735814       -1.7638430443
 C         -0.7538301799        2.1253887416       -2.7094921727
 C          0.6475943202        1.6646005941       -2.9735362931
 H          0.8219539207        0.9768661814       -3.7874287069
 H          1.4546901895        2.3645933888       -2.8131692880
 H         -1.5507584136        1.7570624864       -3.3385592532
 H         -0.8988201992        3.1416125575       -2.3749703902
 H         -0.4150980640        0.1391491536       -1.7627674157
