  62
        -98.94055154
 C         -2.3565345683       -0.7831399039       -0.1442110232
 C         -3.5722738134       -1.1038585935        0.5062765332
 C         -4.7845114202       -0.5251305824       -0.0829194585
 C         -4.6900779575        0.2379953350       -1.1872351996
 C         -5.8377346965        0.8752075718       -1.9229663306
 C         -6.2866420758        2.2201975926       -1.3353765066
 C         -7.0399846674        2.1304011716       -0.0077104563
 H         -7.4808480663        3.1119007657        0.1774433586
 H         -7.8598466461        1.4180249244       -0.1040758950
 C         -6.1627062894        1.7492542654        1.1929441636
 H         -5.1111881706        1.9018034648        0.9384814623
 H         -6.3874639634        2.4103658548        2.0329555856
 C         -6.3497114008        0.3136923972        1.6841993024
 H         -5.6563252674        0.1411445474        2.5113527444
 H         -7.3655004571        0.1857925190        2.0646482276
 C         -6.0893679430       -0.7580875233        0.6173874562
 H         -6.0306217816       -1.7295650610        1.1141361692
 H         -6.9083683703       -0.7809757852       -0.1009890320
 H         -5.4081643143        2.8581652084       -1.2141696389
 H         -6.9425665562        2.6935152917       -2.0696047519
 H         -5.4941954952        1.0438386548       -2.9457834091
 H         -6.6832979292        0.1873523353       -1.9489987790
 O         -3.5026840405        0.5101262447       -1.7917305962
 C         -2.3071697646        0.0292293269       -1.2768253217
 O         -1.2968917965        0.3858174864       -1.9124565708
 O         -3.6399536594       -1.8364467047        1.5296714950
 C         -1.0585614860       -1.3352413499        0.4158357352
 C         -0.1380362351       -0.2047520062        0.8035985326
 C         -0.6117988165        0.7746480858        1.6741052018
 C          0.1945487821        1.8268577766        2.0602136576
 C          1.4952476130        1.9203988000        1.5961475415
 C          1.9766856943        0.9513246577        0.7247704621
 C          1.1619780181       -0.1042206157        0.3367455890
 H          1.5629973474       -0.8408975611       -0.3383861480
 N          3.2814819770        1.0370620987        0.2134827733
 S          4.1387562864       -0.3855547529       -0.0819617262
 O          3.7440860449       -0.9223802579       -1.3597126095
 O          4.0238327952       -1.2777893595        1.0500370665
 C          5.7965655641        0.2630417536       -0.1917147995
 C          6.1909717060        0.8695977193       -1.3695453945
 C          7.4675435444        1.4020037756       -1.4539088208
 C          8.3238203090        1.3196149916       -0.3656559666
 C          7.9147294245        0.7062734798        0.8088197523
 C          6.6385565381        0.1729094760        0.9005071555
 H          6.2797621908       -0.3200417318        1.7896738640
 H          8.5838723522        0.6409655046        1.6516062216
 H          9.3172437664        1.7338806114       -0.4348196232
 H          7.7897894605        1.8773489721       -2.3663022387
 H          5.4940030051        0.9016362873       -2.1909127636
 H          3.8487241377        1.7215113577        0.6946868327
 H          2.1275315425        2.7411705947        1.8989390773
 H         -0.1882754484        2.5780171568        2.7348469075
 H         -1.6260374019        0.6965225991        2.0422946099
 H         -1.3413760132       -1.8730390622        1.3336392846
 C         -0.4363835251       -2.3208986888       -0.5496085743
 C          0.4968708573       -3.3788857986       -0.0443478517
 C         -0.8739337044       -3.7532962799       -0.5199665004
 H         -0.9693021417       -4.2826516609       -1.4560537810
 H         -1.6126484385       -4.0307663813        0.2177379456
 H          1.3501111774       -3.6435132338       -0.6513986055
 H          0.6953146140       -3.4037483732        1.0167945207
 H         -0.2276448371       -1.8817440960       -1.5194794110
