  62
        -98.93770737
 C          1.9945765122        1.0036874954        0.0497911713
 C          2.3034582687        0.0272061649        1.0236773313
 C          2.3946033486       -1.3597155212        0.5466330683
 C          2.1577441230       -1.6205458578       -0.7521238364
 C          2.2595449214       -2.9719223562       -1.4015812012
 C          3.7385004573       -3.3421295387       -1.6337219100
 C          4.2224777594       -4.5437822067       -0.8218034055
 H          3.8342099972       -5.4579201452       -1.2754878744
 H          5.3112679797       -4.5729224601       -0.8986006324
 C          3.8268374175       -4.5507175276        0.6577101234
 H          4.4461731725       -5.3035844212        1.1496791696
 H          2.7924376773       -4.8822888226        0.7600914959
 C          3.9885359932       -3.2181880198        1.4002613807
 H          4.7312049031       -2.5902546260        0.9079158497
 H          4.3648108650       -3.4309420068        2.4028986757
 C          2.6836225791       -2.4187277721        1.5748947944
 H          1.8340536638       -3.1058710636        1.6338634935
 H          2.7288453974       -1.8774475877        2.5249261851
 H          3.8967561826       -3.5573980564       -2.6914359321
 H          4.3492628731       -2.4690512593       -1.3952529649
 H          1.7692644226       -3.7138299914       -0.7747270508
 H          1.7254220362       -2.9126519690       -2.3502603696
 O          1.8682900492       -0.6537076026       -1.6610418375
 C          1.7520878778        0.6738720158       -1.2834532358
 O          1.4531563202        1.4499819253       -2.2116075537
 O          2.4884095151        0.3043638686        2.2416662350
 C          1.8007877526        2.4453266781        0.4837584363
 C          0.3816159035        2.8636535361        0.1829886134
 C          0.0418291337        4.0897827826       -0.3735661743
 C         -1.2799175313        4.3840232966       -0.6623906117
 C         -2.2826024754        3.4642275606       -0.4183833652
 C         -1.9543142308        2.2420206496        0.1582061997
 C         -0.6359613638        1.9636967731        0.4740295202
 H         -0.3955294913        1.0093524675        0.9215166088
 N         -2.9423175601        1.2816033755        0.4420596476
 S         -2.5273901738       -0.3457986589        0.2477001477
 O         -1.8899881592       -0.8104478150        1.4553170124
 O         -1.7940243769       -0.5375875777       -0.9832458684
 C         -4.1530762765       -1.0696200408        0.1179905829
 C         -4.8286610328       -1.4091744890        1.2748187339
 C         -6.1071651818       -1.9348779213        1.1740828238
 C         -6.6860613284       -2.1097508740       -0.0741126184
 C         -5.9949222850       -1.7667803418       -1.2266563977
 C         -4.7163585181       -1.2396387040       -1.1328282973
 H         -4.1365368066       -0.9675356829       -2.0006038350
 H         -6.4454677380       -1.9070526611       -2.1960161863
 H         -7.6812330770       -2.5185326797       -0.1498874939
 H         -6.6457625307       -2.2056260302        2.0678442993
 H         -4.3330404356       -1.2622133310        2.2202993983
 H         -3.8271567315        1.4902825675       -0.0011649923
 H         -3.3085104449        3.6856286151       -0.6705383908
 H         -1.5296497621        5.3373536018       -1.1029510736
 H          0.8130081305        4.8090035177       -0.5958636767
 H          1.9375127358        2.4447208024        1.5760165730
 C          2.8444437086        3.3470971228       -0.1406990356
 C          3.2979767614        4.5858653820        0.5710861921
 C          4.2115202273        3.4027430151        0.4704553407
 H          5.0669504572        3.4624207125       -0.1854357086
 H          4.3807023713        2.8076539498        1.3560700380
 H          3.5305771367        5.4614813542       -0.0159248735
 H          2.8536269807        4.8009342549        1.5310807588
 H          2.7772878475        3.3689323080       -1.2226691512
