  62
        -98.93855268
 C          2.4013564400        1.1966838897       -0.0741199397
 C          3.4934833199        0.8053220794        0.7394688002
 C          4.4151435299       -0.1922363004        0.1730273399
 C          4.1737522400       -0.6889433400       -1.0522541902
 C          4.9896859400       -1.6808329698       -1.8433424105
 C          5.5673566599       -2.8868350700       -1.0909130109
 C          4.6925500399       -3.4163889604        0.0547622989
 H          4.5607360998       -4.4930835704       -0.0680569715
 H          3.7010884299       -2.9615256704        0.0104909190
 C          5.3057477398       -3.1724952109        1.4357898790
 H          6.3726468498       -3.4015804809        1.3903000190
 H          4.8523083597       -3.8659704011        2.1480206688
 C          5.1197321998       -1.7629933310        1.9957350595
 H          5.6932433097       -1.6910744114        2.9228987795
 H          4.0695577098       -1.6039160911        2.2551568595
 C          5.5476275999       -0.6184564607        1.0626411899
 H          6.4310095099       -0.8867334906        0.4885776198
 H          5.7852494699        0.2494317690        1.6835941002
 H          6.5516617599       -2.6349178102       -0.6989067307
 H          5.7162830100       -3.6760109198       -1.8299047111
 H          5.8059445101       -1.1374218996       -2.3284635303
 H          4.3213558201       -2.0292643995       -2.6347125907
 O          3.1001282501       -0.2970526397       -1.7950683102
 C          2.1904597101        0.6423822501       -1.3353642899
 O          1.2707918301        0.8892952804       -2.1404619099
 O          3.6985436399        1.2808341390        1.8873338104
 C          1.4258471400        2.2198862096        0.4848210305
 C          0.1192038799        1.5202363895        0.7647548102
 C         -0.0314380601        0.8062884691        1.9505798400
 C         -1.1906383402        0.0982436091        2.2052387097
 C         -2.2201802601        0.0781217394        1.2798428496
 C         -2.0716799100        0.7714519898        0.0868506998
 C         -0.9156912600        1.5016542498       -0.1568261299
 H         -0.8086406699        2.0245816401       -1.0939004397
 N         -3.1049580200        0.7482649601       -0.8660007502
 S         -3.7910783100       -0.7338989597       -1.2550298108
 O         -2.8638380900       -1.8256047898       -1.0650964211
 O         -4.3255625499       -0.5654616493       -2.5890256008
 C         -5.1475460001       -0.8763263801       -0.1080909909
 C         -6.0573217400        0.1610547799       -0.0437186406
 C         -7.1215048901        0.0642478797        0.8383920993
 C         -7.2596360702       -1.0630743206        1.6345886389
 C         -6.3406197902       -2.0979847106        1.5550498886
 C         -5.2729621901       -2.0067334503        0.6753593187
 H         -4.5304573302       -2.7836678603        0.5836977885
 H         -6.4495501703       -2.9741101608        2.1739575183
 H         -8.0883943902       -1.1358160808        2.3210121788
 H         -7.8383697801        0.8668834797        0.9026674495
 H         -5.9151429900        1.0176898901       -0.6810107803
 H         -2.8815809599        1.2630762404       -1.7060856201
 H         -3.1220766702       -0.4815484906        1.4662004794
 H         -1.2951208303       -0.4466704512        3.1311843195
 H          0.7807912498        0.8040341989        2.6641171700
 H          1.8568117899        2.5350664692        1.4445662907
 C          1.2920606001        3.4331463699       -0.4111259691
 C          0.6379417001        4.6699662497        0.1261172913
 C          2.1153142601        4.6511308797       -0.1229032686
 H          2.5065368902        5.2156697700       -0.9560210284
 H          2.7777546400        4.6160621594        0.7294053914
 H          0.0121317001        5.2511509599       -0.5336788986
 H          0.2958792300        4.6451533994        1.1495597213
 H          1.1299721101        3.1839849302       -1.4528293392
