  62
        -98.93915801
 C          1.8707050087        0.8497873142       -0.1929700541
 C          2.4696638084        0.2231516380        0.9228786302
 C          3.5843331053       -0.6995152489        0.6454423726
 C          3.9534313994       -0.9224375276       -0.6300185881
 C          5.0121021549       -1.8333761716       -1.2162410071
 C          6.0912312644       -2.4507055259       -0.3304424787
 C          7.0897649146       -1.4508297273        0.2519742785
 H          7.7455481632       -1.9858828200        0.9423474492
 H          7.7082648395       -1.0642833058       -0.5619563868
 C          6.4784531640       -0.2527322833        0.9740445424
 H          7.2985305497        0.3768718417        1.3297398106
 H          5.8983348568        0.3443488163        0.2674889539
 C          5.5994051515       -0.5924542811        2.1759440067
 H          5.3631945176        0.3453553289        2.6859253007
 H          6.1566665556       -1.2206900197        2.8735172031
 C          4.2671422838       -1.2879447651        1.8466584546
 H          4.3995422403       -2.3607852785        1.7275444779
 H          3.5886032361       -1.1339676869        2.6909738471
 H          5.6377418665       -3.0418291075        0.4598164865
 H          6.6512154176       -3.1456396521       -0.9622082282
 H          4.4645222031       -2.6437746788       -1.7104483464
 H          5.4911648095       -1.2566937569       -2.0139379343
 O          3.3146812838       -0.3254118016       -1.6789242418
 C          2.2731692099        0.5704729787       -1.4977005853
 O          1.8051819088        1.0331905843       -2.5540723460
 H         -0.3141843485       -0.5797871979        0.4021779955
 C         -0.9220223122       -0.0018846928       -0.2831455357
 C         -0.5310785796        1.2934167859       -0.6030615471
 C         -1.3277541316        2.0296847591       -1.4688874920
 C         -2.4643815416        1.4668810600       -2.0252358771
 C         -2.8375751222        0.1711779088       -1.7222533287
 C         -2.0595700736       -0.5665304953       -0.8376263645
 N         -2.4434445918       -1.8755597226       -0.5021292356
 S         -4.0597318599       -2.1569910096       -0.1718999991
 O         -4.0697571457       -3.2769076541        0.7434164376
 O         -4.7809911771       -2.3498866042       -1.4054348672
 C         -4.6422873435       -0.6775507988        0.6389025071
 C         -4.0025298447       -0.2688635255        1.7924130391
 C         -4.4237755134        0.8942329514        2.4158673570
 C         -5.4733541464        1.6244488602        1.8792568778
 C         -6.1098542783        1.1971873670        0.7245668361
 C         -5.6905428713        0.0361897355        0.0948558988
 H         -6.1529048808       -0.3299097852       -0.8073286258
 H         -6.9269614051        1.7655773231        0.3105919033
 H         -5.7958448703        2.5313302773        2.3658566628
 H         -3.9288114352        1.2276042096        3.3139351471
 H         -3.1913465223       -0.8589528871        2.1884835529
 H         -1.8440900312       -2.3197961115        0.1773072659
 H         -3.7090487731       -0.2858170068       -2.1622682714
 H         -3.0666128808        2.0458804930       -2.7083212610
 H         -1.0535008788        3.0406022534       -1.7201095583
 C          0.7295669618        1.8250637200        0.0332475969
 H          0.5771558617        1.8444024116        1.1225864041
 C          1.1116519742        3.2146075516       -0.4290508116
 C          0.4741655166        4.4168954236        0.1988648189
 C          1.9067129862        4.0896411379        0.4915740652
 H          2.6783775980        4.7155619854        0.0690717273
 H          2.1541298513        3.6913263978        1.4648783259
 H         -0.2531325405        4.2462530059        0.9778451600
 H          0.2624911389        5.2729932045       -0.4235828535
 H          1.3528744714        3.2517186037       -1.4852873058
 O          2.0810914361        0.4147803423        2.1076338163
