  62
        -98.93966921
 C         -2.6699672671       -0.8339839885        0.3727306624
 C         -2.6773772847        0.2946674754        1.2280340466
 C         -3.3939455380        1.4734700627        0.7310257739
 C         -3.9873891328        1.4324009718       -0.4760270703
 C         -4.7790401038        2.5431298207       -1.1113961470
 C         -3.9200420370        3.5793680856       -1.8489762443
 C         -3.1143655458        4.5156921639       -0.9476138461
 H         -2.7340071574        5.3200173505       -1.5803197410
 H         -3.7782167998        4.9678677901       -0.2101299750
 C         -1.9304556456        3.8457392153       -0.2361198761
 H         -1.6967431937        2.8994967612       -0.7302488158
 H         -1.0457670806        4.4800328398       -0.3261600185
 C         -2.1521715829        3.5860686809        1.2541465827
 H         -2.2576995224        4.5375012982        1.7799883387
 H         -1.2679405789        3.0794386046        1.6493518681
 C         -3.3763353166        2.7161892890        1.5694542082
 H         -3.3193818164        2.4102420383        2.6169668672
 H         -4.2921835427        3.2877435925        1.4214441193
 H         -3.2433754448        3.0530123583       -2.5262520209
 H         -4.5937368613        4.1864438590       -2.4580564806
 H         -5.4473890780        2.0723375988       -1.8355025315
 H         -5.3836628706        3.0422234863       -0.3536338404
 O         -3.9467599048        0.3332960942       -1.2740056323
 C         -3.2674430956       -0.8142085844       -0.8880856986
 O         -3.2818866328       -1.7225132846       -1.7392737255
 O         -2.1104938293        0.3156385026        2.3544842329
 C         -1.9287845864       -2.0803484286        0.8271124477
 C         -0.6861630142       -2.2391962177       -0.0152160025
 C         -0.4779191020       -3.2916926676       -0.8951844422
 C          0.6779872221       -3.3460389699       -1.6561263927
 C          1.6452904886       -2.3639133956       -1.5541903819
 C          1.4522379450       -1.3115655510       -0.6671509614
 C          0.2953184689       -1.2604016704        0.0952878865
 H          0.1392011555       -0.4416272824        0.7867947526
 N          2.4236259153       -0.2973612055       -0.5604169879
 S          4.0387150480       -0.7909875277       -0.4832101753
 O          4.4973830108       -1.0582248166       -1.8234181244
 O          4.1817553528       -1.8774727959        0.4600834340
 C          4.8222928512        0.6829249805        0.1385612795
 C          5.1033667821        1.7079739147       -0.7448023228
 C          5.6939897963        2.8645483789       -0.2613426574
 C          5.9913176812        2.9763944618        1.0889350844
 C          5.7042583709        1.9385618694        1.9627766360
 C          5.1120370030        0.7794701659        1.4862343543
 H          4.8788356880       -0.0556359393        2.1273610096
 H          5.9392646778        2.0271481851        3.0112520018
 H          6.4528501661        3.8767967237        1.4624495930
 H          5.9212286870        3.6727796724       -0.9375873211
 H          4.8636758454        1.5724995296       -1.7864937198
 H          2.2101505286        0.3488930657        0.1875118596
 H          2.5492575738       -2.4007681088       -2.1404986205
 H          0.8271412561       -4.1668057197       -2.3417155213
 H         -1.2227643059       -4.0635852057       -0.9947848795
 H         -1.6098197165       -1.8662982715        1.8575688087
 C         -2.8285243543       -3.2960321279        0.8411020678
 C         -2.4495458331       -4.4863802503        1.6689405197
 C         -3.5974988470       -3.6183459183        2.0859337305
 H         -4.6005520614       -4.0047879457        1.9853651317
 H         -3.4642793627       -2.9675702123        2.9378337349
 H         -2.6639170039       -5.4718910434        1.2845771878
 H         -1.5338629183       -4.4260818658        2.2377364030
 H         -3.3230834983       -3.4689925958       -0.1071306320
