  62
        -98.93978311
 C          1.7470608165        1.3187531008        0.4768014240
 C          1.5491983142        0.2431509652       -0.4253435865
 C          2.7647251877       -0.2908253856       -1.0639095449
 C          3.9612261887        0.2491935467       -0.7739933002
 C          5.2767746757       -0.2325641259       -1.3116155090
 C          5.9040984547       -1.2809119403       -0.3822732050
 C          4.9431790664       -2.3972647827        0.0274280363
 H          5.5027185070       -3.0943014088        0.6550752326
 H          4.1475107710       -1.9764724194        0.6469201818
 C          4.3167114741       -3.1592689016       -1.1487715264
 H          4.3564879281       -4.2292501394       -0.9338867611
 H          4.9007136720       -2.9889701627       -2.0540569468
 C          2.8507494008       -2.8154136626       -1.4204202831
 H          2.4509515454       -3.5571320980       -2.1174755410
 H          2.2739197915       -2.8983877688       -0.4950404834
 C          2.5900028946       -1.4310687737       -2.0271830456
 H          3.2178919117       -1.2917750634       -2.9098141304
 H          1.5422505419       -1.4037847148       -2.3411563635
 H          6.7721443941       -1.7122739957       -0.8839922094
 H          6.2501288214       -0.7781465474        0.5237942665
 H          5.9512290035        0.6219786576       -1.3880103107
 H          5.1260640405       -0.6544648647       -2.3033014512
 O          4.1127573391        1.2792586996        0.0965777396
 C          3.0220813552        1.8192709928        0.7574203515
 O          3.3135564126        2.7290373629        1.5593219786
 O          0.4273438530       -0.2505323382       -0.7032210533
 C          0.5992959722        1.9458239248        1.2518289334
 C         -0.2132724540        0.8694583755        1.9276536325
 C          0.3254814059        0.2426340709        3.0481663391
 C         -0.3790980092       -0.7374045906        3.7195347265
 C         -1.6338585679       -1.1167335405        3.2771254298
 C         -2.1745586926       -0.5119233883        2.1497853016
 C         -1.4684130539        0.4813229805        1.4835719464
 H         -1.8955355790        0.9375273046        0.6057888025
 N         -3.4557554781       -0.8765536256        1.6843630967
 S         -3.5508018041       -1.6329977152        0.1800191634
 O         -4.8082681579       -2.3538408737        0.2301762099
 O         -2.3798281447       -2.4367927809       -0.0789698597
 C         -3.7101955417       -0.3123409810       -0.9995726107
 C         -2.6523620644        0.0129832271       -1.8237759292
 C         -2.8304696182        1.0153914225       -2.7658386921
 C         -4.0468651237        1.6738129772       -2.8588544734
 C         -5.0953109950        1.3397187193       -2.0142744475
 C         -4.9295347801        0.3328163404       -1.0778889671
 H         -5.7217837835        0.0253984642       -0.4157238530
 H         -6.0386269316        1.8566251591       -2.0873275060
 H         -4.1767173027        2.4527394449       -3.5939820521
 H         -2.0137416877        1.2782482691       -3.4195307680
 H         -1.7109892902       -0.4989390363       -1.7003929874
 H         -3.9702846795       -1.4385217917        2.3497158978
 H         -2.1904588452       -1.8836287663        3.7958991539
 H          0.0499063282       -1.2106558161        4.5901518624
 H          1.3094804842        0.5381995741        3.3875045848
 H          1.0898339639        2.5319511172        2.0462099682
 C         -0.2478228359        2.9295190283        0.4594820095
 C          0.4109136724        3.9162294215       -0.4577233055
 C         -0.4608446308        2.8354762646       -1.0190286814
 H         -1.4306555725        3.1092050912       -1.4077011864
 H          0.0057691603        2.0188739202       -1.5452832622
 H          0.0482723107        4.9328406272       -0.4690455979
 H          1.4803224696        3.8316832311       -0.5880958107
 H         -1.0816024098        3.3011261334        1.0473551501
