  62
        -98.93637940
 C         -1.8274822755        0.7397486151       -0.1704419907
 C         -2.9306660059        0.4867384201       -1.0234811078
 C         -4.0452093313       -0.3140080745       -0.4821035146
 C         -3.9552744442       -0.7702384598        0.7805799241
 C         -4.9658182231       -1.5666841052        1.5623964876
 C         -6.1428311905       -0.7098703347        2.0555710314
 C         -6.7080014610        0.2608605568        1.0220599761
 H         -7.4575580071        0.8792577929        1.5229312624
 H         -5.9124830395        0.9269878421        0.6832765749
 C         -7.3735439332       -0.3910741553       -0.1875816161
 H         -8.1901058178       -1.0309115872        0.1544355548
 H         -7.8098829525        0.4107457431       -0.7887446915
 C         -6.4562370195       -1.2160013486       -1.0930391460
 H         -7.0010034690       -1.4041217481       -2.0228943255
 H         -6.2461245972       -2.1893856603       -0.6577589239
 C         -5.1548438350       -0.5226897634       -1.4840119468
 H         -4.7000488580       -1.0768517627       -2.3141647821
 H         -5.3841544237        0.4680659520       -1.8927241629
 H         -5.7978676965       -0.1225043035        2.9100894369
 H         -6.9334002101       -1.3772859190        2.4027155054
 H         -4.4418341619       -1.9705677735        2.4316684079
 H         -5.3185913280       -2.4060025268        0.9703077473
 O         -2.8727582097       -0.5106608322        1.5652248848
 C         -1.7884734592        0.2335225361        1.1286448522
 O         -0.8891007689        0.3482967737        1.9829014902
 O         -2.9929832793        0.9263618649       -2.2036145079
 C         -0.7024891938        1.5826873511       -0.7448035487
 C          0.4140594463        0.7320866513       -1.2932864345
 C          0.9391815501        0.9718502394       -2.5576703522
 C          1.9830075340        0.2043180736       -3.0457391394
 C          2.5247848278       -0.8156186911       -2.2842842530
 C          2.0058188206       -1.0639290134       -1.0199036620
 C          0.9600453693       -0.2931278845       -0.5329767626
 H          0.5666933195       -0.4887128137        0.4536954348
 N          2.5510776867       -2.0962230102       -0.2283746643
 S          4.1853522439       -1.9846870727        0.1290689721
 O          4.9451858743       -2.2557505167       -1.0651368715
 O          4.4003060928       -2.8818127538        1.2409831045
 C          4.4244503164       -0.2927938364        0.6360581478
 C          4.7791183032        0.6561566316       -0.3019875574
 C          4.8861592651        1.9796007035        0.0945005046
 C          4.6401816517        2.3289898750        1.4131863950
 C          4.2896338134        1.3630543411        2.3440530894
 C          4.1726671172        0.0393785257        1.9523776468
 H          3.9015208808       -0.7411302589        2.6453860566
 H          4.0979457634        1.6361088075        3.3692474299
 H          4.7196852290        3.3602577161        1.7177786714
 H          5.1569883689        2.7335913067       -0.6265853444
 H          4.9699805863        0.3432028550       -1.3150420538
 H          2.0308150042       -2.2470752663        0.6247849931
 H          3.3409166625       -1.4206987963       -2.6448573949
 H          2.3778188610        0.4000045133       -4.0309497692
 H          0.5152218303        1.7585746305       -3.1641976177
 H         -1.1611922963        2.1100780642       -1.5960078639
 C         -0.2014039586        2.6450839875        0.2253444061
 C          1.1037182475        2.5603515740        0.9516130392
 C          0.9333719129        3.5475469816       -0.1610498023
 H          0.8633475143        4.5969837795        0.0804598486
 H          1.4382706281        3.3376683318       -1.0916603510
 H          1.1313626801        2.9167495310        1.9696055553
 H          1.7315220321        1.7005285291        0.7800441217
 H         -1.0219659596        3.1014728678        0.7706494326
