  62
        -98.94567402
 C         -1.5211100948       -1.3108410301       -0.6923624059
 C         -2.8139473111       -1.1619688077       -0.1247527568
 C         -3.5628185723        0.0384880967       -0.5058990094
 C         -3.0172504935        0.9151234997       -1.3678541333
 C         -3.6535405055        2.1855665178       -1.8625374513
 C         -3.4685706365        3.3768634878       -0.9127868067
 C         -4.3100996236        3.3253550442        0.3631015444
 H         -4.2559141055        4.3144942707        0.8222237700
 H         -5.3532895420        3.1427766818        0.1025114607
 C         -3.8426628227        2.2817456974        1.3876251870
 H         -2.8177875200        1.9776347783        1.1575540583
 H         -3.8215913002        2.7331172124        2.3824773118
 C         -4.7262363213        1.0367131188        1.4745475160
 H         -5.7169495611        1.3167144206        1.8397500001
 H         -4.2793529464        0.3521709728        2.2001906230
 C         -4.8888737430        0.2814629164        0.1491262715
 H         -5.3376830627       -0.6918270318        0.3623793908
 H         -5.5486268176        0.8332081311       -0.5201757369
 H         -2.4105372009        3.4509391504       -0.6476928471
 H         -3.7379450915        4.2806004966       -1.4646604668
 H         -3.1733009516        2.4254036585       -2.8136159309
 H         -4.7166657276        2.0204571962       -2.0402489920
 O         -1.7926948130        0.7236469042       -1.9182686203
 C         -0.9989142280       -0.3614635043       -1.5705733342
 O          0.1121913601       -0.3541405802       -2.1358734087
 H          1.1549776981       -0.5946701387        0.0271747586
 C          0.9926559946       -1.1190260787        0.9536493122
 C          0.0692357104       -2.1549850967        1.0011689617
 C         -0.1349699130       -2.8186260670        2.2043905459
 C          0.5578512821       -2.4391236326        3.3404857800
 C          1.4463870238       -1.3813070390        3.2992404202
 C          1.6603094276       -0.7104303220        2.0980932127
 N          2.5597556340        0.3602410537        2.0431707182
 S          2.3915224904        1.6644424149        1.0024321291
 O          2.9485264847        2.7775617649        1.7462015310
 O          1.0307034719        1.8237854777        0.5503410189
 C          3.5129523189        1.2680320616       -0.3226528525
 C          4.8628254102        1.4031441301       -0.0543468924
 C          5.7813457030        1.0872960773       -1.0406009342
 C          5.3375740858        0.6412344919       -2.2769912422
 C          3.9815713174        0.5137171156       -2.5308547185
 C          3.0548571676        0.8295779196       -1.5473370587
 H          1.9951133218        0.7293749442       -1.7270057296
 H          3.6289740900        0.1665318345       -3.4891332225
 H          6.0509021179        0.3930823764       -3.0471927519
 H          6.8366481881        1.1886420553       -0.8448002062
 H          5.1620205702        1.7663896295        0.9147373118
 H          2.9342224740        0.6450677405        2.9358367556
 H          1.9691946783       -1.0675757682        4.1900863665
 H          0.3906296967       -2.9595815203        4.2713362320
 H         -0.8587613776       -3.6187468314        2.2511273407
 C         -0.7262002258       -2.5216285596       -0.2305687290
 H         -1.4794275740       -3.2630186283        0.0708439956
 C          0.1600756972       -3.1444696833       -1.2885671594
 C          0.5384564415       -4.5884752435       -1.1578493275
 C         -0.4198637772       -4.1581413548       -2.2267399003
 H         -0.0873778150       -4.1563086815       -3.2536703637
 H         -1.4640172914       -4.4088194138       -2.1076339523
 H          1.5336106886       -4.8866479236       -1.4492816024
 H          0.1434720557       -5.1360019528       -0.3155911369
 H          0.8994722760       -2.4646862713       -1.6897466036
 O         -3.3221623514       -2.0054330955        0.6626239287
