  62
        -98.93865754
 C          1.9371318672        1.3712076602        0.3072362810
 C          2.6072613577        0.8285359020       -0.8134485882
 C          3.7990901421        0.0081802333       -0.5259191755
 C          4.1701695069       -0.1832878318        0.7518345236
 C          5.3125584268       -1.0197155703        1.2585290987
 C          4.8347073492       -2.4399272260        1.6055307356
 C          4.8445821484       -3.4265992249        0.4383868978
 H          5.8780487182       -3.6752901412        0.1882310421
 H          4.3618700690       -4.3438914584        0.7837994477
 C          4.1368828650       -2.9475877649       -0.8321247492
 H          3.1950574639       -2.4610932981       -0.5703241610
 H          3.8876781974       -3.8278654937       -1.4281057685
 C          4.9971360526       -1.9998505275       -1.6814247931
 H          5.0167813411       -2.3578511150       -2.7128390726
 H          6.0256317445       -2.0355098780       -1.3225169141
 C          4.5158005029       -0.5420682697       -1.7284999588
 H          5.3680255258        0.1074189987       -1.9546928430
 H          3.8039364544       -0.4211021691       -2.5513351390
 H          5.4743623068       -2.8427203489        2.3934496533
 H          3.8235923341       -2.3630901591        2.0140988496
 H          6.1232713467       -1.0429856885        0.5366286288
 H          5.6683574020       -0.5398895985        2.1727324150
 O          3.4816461515        0.3421848834        1.8032248444
 C          2.3530370813        1.1179966494        1.6131259029
 O          1.8112405290        1.5107842007        2.6670924746
 H         -0.1226959061       -0.2078228440        0.7415940043
 C         -0.6710268415        0.1713868538       -0.1126212361
 C         -0.3718850811        1.4397710318       -0.5963002733
 C         -1.0956377754        1.9219330657       -1.6782446164
 C         -2.0667770341        1.1375792285       -2.2780213590
 C         -2.3448287324       -0.1323055318       -1.8087710627
 C         -1.6413023580       -0.6158789682       -0.7120869242
 N         -1.9336542398       -1.8960263679       -0.2109595995
 S         -3.5462839321       -2.3048463105       -0.0219971985
 O         -3.5694288136       -3.2682829019        1.0563919305
 O         -4.0814876307       -2.7593157807       -1.2811129945
 C         -4.3591221203       -0.7933690794        0.4668812561
 C         -5.3542923160       -0.2582926968       -0.3252410841
 C         -5.9477617667        0.9338917304        0.0579619774
 C         -5.5342938210        1.5692322666        1.2183194232
 C         -4.5354028713        1.0170273671        2.0058232560
 C         -3.9404823196       -0.1757693213        1.6288778993
 H         -3.1639106881       -0.6314583608        2.2226723229
 H         -4.2138780417        1.5117977416        2.9083792242
 H         -5.9921641213        2.5000829927        1.5133896726
 H         -6.7261069884        1.3645331428       -0.5509770445
 H         -5.6420547788       -0.7836338001       -1.2212361671
 H         -1.3929850954       -2.1527089412        0.6014671261
 H         -3.0851935992       -0.7612636162       -2.2758507405
 H         -2.6124752476        1.5202558210       -3.1266965954
 H         -0.8928148736        2.9083529791       -2.0607073463
 C          0.7022405845        2.2318533517        0.1098680532
 H          0.3368178388        2.4710392564        1.1194161215
 C          1.0691552492        3.5220769251       -0.5926520874
 C          0.2721775951        4.7670189369       -0.3479048916
 C          1.6552738980        4.6400606415        0.2143649187
 H          2.4480994295        5.2298302237       -0.2207122058
 H          1.7659174814        4.4789541140        1.2771685877
 H         -0.5597007649        4.7019047707        0.3367680897
 H          0.1166232393        5.4498441732       -1.1693997148
 H          1.4738244275        3.3556878267       -1.5841239098
 O          2.2291936936        1.0124767046       -1.9995687234
