  62
        -98.93824611
 C         -2.4923228467       -0.7059587435       -0.0099337863
 C         -2.9056468669        0.4192481925        0.7494047923
 C         -4.0445059694        1.1783262574        0.2244123105
 C         -4.6154645282        0.8017693352       -0.9339341266
 C         -5.7673566018        1.4859930415       -1.6188723855
 C         -7.1464918202        1.0718198711       -1.0878180068
 C         -7.5006533918        1.6153162889        0.2969562356
 H         -7.3487156053        2.6949851390        0.3120060346
 H         -8.5665224176        1.4342249801        0.4493720877
 C         -6.7206694254        0.9675608850        1.4495920410
 H         -7.4098016750        0.7127745832        2.2579742325
 H         -6.2718866914        0.0327208203        1.1057775205
 C         -5.6255596428        1.8497858054        2.0492272238
 H         -6.0770838845        2.7281394385        2.5157989692
 H         -5.1147653863        1.2793811116        2.8292856311
 C         -4.5704575137        2.3208439675        1.0398073153
 H         -3.7309552186        2.7472055503        1.5943104103
 H         -4.9881864877        3.0903080880        0.3908313424
 H         -7.8917622946        1.4359848549       -1.7987311332
 H         -7.2035299645       -0.0190864919       -1.0767393732
 H         -5.7083679896        1.2111361152       -2.6741802780
 H         -5.6534364635        2.5671032887       -1.5341676389
 O         -4.1784635456       -0.2684183535       -1.6457197193
 C         -3.1193363393       -1.0569748878       -1.2065651857
 O         -2.8587875262       -2.0049710722       -1.9683877796
 O         -2.3456538584        0.7684008380        1.8236905041
 C         -1.3267130509       -1.5032381223        0.5470114430
 C         -0.0163285334       -0.9943887543        0.0024496908
 C          0.1976822956       -0.8635895142       -1.3661953362
 C          1.4118779420       -0.4047219192       -1.8434467230
 C          2.4314642197       -0.0619984503       -0.9722028206
 C          2.2279009939       -0.1853229749        0.3952121408
 C          1.0086828795       -0.6515600664        0.8716687266
 H          0.8496210987       -0.7349317313        1.9385643961
 N          3.2522529955        0.1774724056        1.2839838899
 S          4.7986911888       -0.4199159430        1.0191003770
 O          4.7593616999       -1.6921273035        0.3367615997
 O          5.4343631268       -0.4046648942        2.3181940822
 C          5.5646274470        0.8088411576       -0.0164457479
 C          5.6020777613        2.1127191233        0.4375061996
 C          6.2037621723        3.0789796816       -0.3526232995
 C          6.7575578488        2.7267511702       -1.5745771221
 C          6.7154344682        1.4125616076       -2.0142966438
 C          6.1137149001        0.4413007945       -1.2292031075
 H          6.0536512137       -0.5918204285       -1.5328043589
 H          7.1470042821        1.1406336802       -2.9641764556
 H          7.2254606826        3.4809410110       -2.1874617720
 H          6.2389664783        4.1019445230       -0.0139832902
 H          5.1647439961        2.3450139386        1.3941855142
 H          2.9963910829        0.1049237134        2.2580221823
 H          3.3774857325        0.2980017278       -1.3420359924
 H          1.5659581523       -0.3105103458       -2.9077573375
 H         -0.5957807986       -1.1304637560       -2.0480477789
 H         -1.3364466948       -1.2871141554        1.6276012804
 C         -1.4907568562       -3.0086239208        0.3911785718
 C         -0.6637804518       -3.8497595406       -0.5290175627
 C         -0.4534633793       -3.9373024150        0.9510024904
 H         -0.7777934870       -4.8249893243        1.4726319047
 H          0.4476122293       -3.4947995947        1.3502088346
 H         -1.1566426115       -4.6647093904       -1.0365134007
 H          0.0971472500       -3.3676941655       -1.1219602210
 H         -2.5257765297       -3.3131187477        0.5102626208
