  62
        -98.93591175
 C         -2.3891426592       -1.4569975808        0.1635819299
 C         -2.4545996593       -0.2513830910       -0.5710286405
 C         -3.5624215294        0.6663870090       -0.2363683809
 C         -4.4457819795        0.3101109092        0.7131927991
 C         -5.6464506296        1.0669084092        1.2224419687
 C         -6.5364567196        1.7397895888        0.1661717084
 C         -6.4417170297        3.2664287688        0.1742601980
 H         -7.3576569997        3.6759580386       -0.2573300622
 H         -6.3897461499        3.6059613691        1.2107660579
 C         -5.2642209297        3.8479089787       -0.6063861120
 H         -5.2294049398        4.9207550888       -0.4028312423
 H         -5.4443937095        3.7266357584       -1.6767797120
 C         -3.8980848697        3.2425466489       -0.2768371017
 H         -3.7999909598        3.0789526792        0.7957809884
 H         -3.1326141497        3.9697509389       -0.5570129518
 C         -3.6025610794        1.9402572787       -1.0358366113
 H         -4.3131008593        1.8187710584       -1.8588262813
 H         -2.6134616694        2.0049686287       -1.5007218712
 H         -6.2975710694        1.3506396885       -0.8222948914
 H         -7.5709151996        1.4662753487        0.3798829084
 H         -6.2272105596        0.3303342293        1.7822566989
 H         -5.3052569398        1.8098311794        1.9476650186
 O         -4.3381399095       -0.8630294306        1.4007247394
 C         -3.3152443893       -1.7593439506        1.1626434298
 O         -3.3396075293       -2.7741996404        1.8868464801
 O         -1.6326012092        0.0577347088       -1.4749769005
 C         -1.2750719891       -2.4636097307       -0.0757729797
 C          0.0301879108       -1.8235506305        0.3291573303
 C          0.3134391406       -1.6792537801        1.6851130503
 C          1.4696688405       -1.0475319999        2.1002568902
 C          2.3648967605       -0.5389471800        1.1740747402
 C          2.0824598207       -0.6617386004       -0.1787592998
 C          0.9280121608       -1.3150151407       -0.5942550198
 H          0.7178522010       -1.3949582710       -1.6487668598
 N          2.9800692008       -0.1518071206       -1.1297707998
 S          3.6906257106        1.3447160895       -0.8763557902
 O          2.8476291804        2.2240857997       -0.1000143205
 O          4.0641934507        1.8089415192       -2.1948863602
 C          5.1704070705        0.9515157199        0.0350946401
 C          5.4608158903        1.6277500203        1.2036560300
 C          6.6228568203        1.3119006306        1.8906135202
 C          7.4702965304        0.3311905806        1.3987236606
 C          7.1660204706       -0.3368027598        0.2218833508
 C          6.0067072007       -0.0248979401       -0.4699006995
 H          5.7356603309       -0.5191503104       -1.3877428894
 H          7.8272417608       -1.0991735399       -0.1574904289
 H          8.3728592204        0.0860162208        1.9359513908
 H          6.8608611301        1.8309516009        2.8052022901
 H          4.7694390702        2.3788307603        1.5519945197
 H          2.6556469809       -0.2423888009       -2.0816930798
 H          3.2623326704       -0.0341294798        1.4918853702
 H          1.6779202403       -0.9464451095        3.1546693502
 H         -0.3953661495       -2.0610101600        2.4074467303
 H         -1.4724295391       -3.2976560906        0.6109382505
 C         -1.2943297089       -2.9870435012       -1.4963152796
 C         -0.5322279187       -4.2327855712       -1.8320477191
 C         -2.0300846787       -4.2566485613       -1.7968731793
 H         -2.5679652286       -4.3306519216       -2.7301990494
 H         -2.5161874988       -4.7584000211       -0.9729233692
 H         -0.0403142086       -4.2950503114       -2.7907916690
 H          0.0013421012       -4.7199441509       -1.0301304189
 H         -1.3417733389       -2.2016999214       -2.2408199798
