  62
        -98.93745485
 C         -1.8001732078        0.5568541151       -1.0240456435
 C         -2.1076579989        0.4127599039        0.3476472237
 C         -3.5374757572        0.4698042907        0.7154753567
 C         -4.4495343826        0.6665002045       -0.2548158022
 C         -5.9483045557        0.7157272760       -0.1233281965
 C         -6.5719827806       -0.6802494574        0.0443486259
 C         -5.8246454625       -1.6103850677        0.9969835149
 H         -6.2892022303       -2.5978092601        0.9293224847
 H         -4.7917625040       -1.7157256218        0.6595236545
 C         -5.8385071057       -1.1880655465        2.4641165778
 H         -6.8726430843       -1.1446107111        2.8135481502
 H         -5.3288457673       -1.9706658304        3.0320277060
 C         -5.1639626080        0.1473917692        2.7822964290
 H         -5.0567596454        0.2058481036        3.8694919012
 H         -5.7953859849        0.9819347609        2.4897021743
 C         -3.7633157663        0.3123376784        2.1999027488
 H         -3.2956592363        1.1888236755        2.6645057949
 H         -3.1453822699       -0.5395861992        2.5056192121
 H         -7.6025671188       -0.5603897039        0.3824531633
 H         -6.5929193167       -1.1592836491       -0.9376403314
 H         -6.2286672838        1.3688357292        0.6976424651
 H         -6.3306275939        1.1581510330       -1.0458333848
 O         -4.1023672350        0.8077428806       -1.5669286025
 C         -2.7883761274        0.7524373916       -1.9866818862
 O         -2.6292787800        0.8846648005       -3.2179362741
 H          2.1243192494        0.0323197617       -0.3794781623
 C          1.5509515764       -0.8678682039       -0.5217623135
 C          0.2785263331       -0.8054434516       -1.0670606411
 C         -0.4253507926       -1.9928331109       -1.2527005168
 C          0.1229678746       -3.2047240067       -0.8819642570
 C          1.3923220987       -3.2619953644       -0.3332788325
 C          2.1092858441       -2.0857635636       -0.1563080397
 N          3.3884933101       -2.1072302723        0.4153310957
 S          4.5764106819       -1.0570097651       -0.1088794712
 O          4.4853795986       -0.8114127923       -1.5293582160
 O          5.8137955090       -1.6527301765        0.3497935447
 C          4.2967615183        0.4516573830        0.7945965133
 C          4.6110672943        1.6520920198        0.1885063076
 C          4.4370423992        2.8294610122        0.8990797304
 C          3.9539024474        2.7858144951        2.1976312058
 C          3.6454184489        1.5719627838        2.7925649596
 C          3.8213991897        0.3909115414        2.0893681384
 H          3.5840873298       -0.5668223514        2.5214500394
 H          3.2652069741        1.5417878121        3.8010141607
 H          3.8148478951        3.7030411916        2.7479697063
 H          4.6761363670        3.7744380039        0.4373299590
 H          4.9723301314        1.6406515007       -0.8276943399
 H          3.7545070086       -3.0243687115        0.6236195637
 H          1.8224276176       -4.2084468192       -0.0426588562
 H         -0.4393761335       -4.1152841363       -1.0256845723
 H         -1.4151269716       -1.9504207566       -1.6875595060
 C         -0.3558410386        0.4990559119       -1.4847128631
 H         -0.3851421186        0.5239286092       -2.5845091944
 C          0.3933220241        1.7194211917       -0.9901274499
 C          1.5495573829        2.2679133364       -1.7692746528
 C          0.2476883069        3.0091971446       -1.7380486236
 H          0.1910393693        3.9286264750       -1.1752953111
 H         -0.3709325709        3.0000961864       -2.6239241516
 H          1.8272786665        1.7584618129       -2.6800116700
 H          2.3858443379        2.6790818381       -1.2242407348
 H          0.4362707624        1.7687300466        0.0920684417
 O         -1.2327449392        0.2359888295        1.2351607496
