  62
        -98.93728356
 C         -1.3257088963       -1.5428053911        0.1766459791
 C         -2.3596391380       -1.0644504252        1.0166555504
 C         -3.2238947830        0.0025746095        0.4765307992
 C         -2.9488720073        0.4984560702       -0.7437983664
 C         -3.7032485237        1.5694351846       -1.4849442214
 C         -3.4087423379        2.9948231308       -0.9768723477
 C         -3.1459392109        3.1079669223        0.5239799585
 H         -2.3881152183        2.3769491934        0.8128572402
 H         -2.7325315006        4.1007038544        0.7217999372
 C         -4.3814383880        2.9401414916        1.4059896164
 H         -5.0581312262        3.7801245856        1.2301772033
 H         -4.0575939882        2.9878523952        2.4489086171
 C         -5.1704587755        1.6487776617        1.2003568664
 H         -5.6609191230        1.6563931357        0.2307393460
 H         -5.9650338157        1.6280857017        1.9524405741
 C         -4.3698874258        0.3626923178        1.3898610864
 H         -3.9505536478        0.3512989867        2.4023043506
 H         -5.0669630308       -0.4843693796        1.3548748614
 H         -4.2437430780        3.6420699620       -1.2489904983
 H         -2.5210612673        3.3586382804       -1.4967713273
 H         -4.7669432664        1.3490361650       -1.4384726555
 H         -3.3993232252        1.5013110838       -2.5313546877
 O         -1.8818122380        0.0780978294       -1.4763414077
 C         -1.0515956411       -0.9497660047       -1.0570995376
 O         -0.1393666702       -1.2211735002       -1.8560329729
 O         -2.5608279600       -1.5132036518        2.1783950889
 C         -0.4716684135       -2.6884775832        0.6899112664
 C          0.9886782830       -2.3755406345        0.4895216361
 C          1.8276074504       -3.1054998532       -0.3410635108
 C          3.1517636621       -2.7349606468       -0.5009772953
 C          3.6687170374       -1.6388844024        0.1645397835
 C          2.8375670770       -0.9028045803        0.9991769062
 C          1.5123275949       -1.2746264063        1.1572848499
 H          0.8636400368       -0.6938210549        1.8023100339
 N          3.3549920094        0.2230257313        1.6778792852
 S          3.8928009363        1.4844262677        0.7140724581
 O          5.0690155492        1.0595651844       -0.0001458088
 O          4.0602374220        2.6053259933        1.6116262411
 C          2.5557900051        1.7999948383       -0.4205418152
 C          1.5646734375        2.6808646145       -0.0365210658
 C          0.4914569862        2.8920176256       -0.8857096387
 C          0.4231319010        2.2132065985       -2.0924676442
 C          1.4226249479        1.3267044589       -2.4603470716
 C          2.5009984281        1.1145724737       -1.6170151215
 H          3.2956377847        0.4320379742       -1.8698223598
 H          1.3559825797        0.7865929777       -3.3902089597
 H         -0.4181481716        2.3658801292       -2.7500466537
 H         -0.2882691936        3.5799177583       -0.5995003833
 H          1.6583496895        3.1937767119        0.9076783533
 H          2.7183959010        0.5900615210        2.3717867952
 H          4.6933272843       -1.3285294588        0.0381858534
 H          3.7902550928       -3.3068201583       -1.1572290858
 H          1.4382746333       -3.9496189603       -0.8856835187
 H         -0.6678760674       -2.7104611256        1.7751107510
 C         -0.8739982846       -4.0538705326        0.1526221841
 C         -2.2975802827       -4.3485702789       -0.2116414631
 C         -1.2501608203       -4.2789176367       -1.2800478835
 H         -0.9398652323       -5.2000837046       -1.7514253048
 H         -1.2415776779       -3.4265109928       -1.9406950113
 H         -2.7057320819       -5.3131954676        0.0503663529
 H         -3.0099857262       -3.5395352398       -0.1397860314
 H         -0.3300757114       -4.8549921560        0.6439655437
