  62
        -98.94518258
 C         -2.2699698000       -0.7162644898       -0.0130356302
 C         -3.2787014098       -0.6683071802        0.9823511900
 C         -4.1614151797        0.5019828599        0.9483350809
 C         -3.9515999898        1.4683473804        0.0361176514
 C         -4.7468493397        2.7376680906       -0.1071793077
 C         -6.0342000498        2.5795058612       -0.9282270575
 C         -7.1628766998        1.8194082509       -0.2303283478
 H         -7.3409239095        2.2577206904        0.7520902725
 H         -8.0661356599        1.9728699914       -0.8241309875
 C         -6.9170938799        0.3109425108       -0.0870221487
 H         -7.8176804600       -0.2339040889       -0.3788853589
 H         -6.1222916801        0.0050532211       -0.7712128991
 C         -6.5530884897       -0.1407637901        1.3273048109
 H         -6.3641017598       -1.2169582901        1.3050364003
 H         -7.3960640696        0.0395102296        1.9979044912
 C         -5.3109452495        0.5464491194        1.9094158311
 H         -5.0106458194        0.0070944489        2.8109864507
 H         -5.5419518693        1.5768126593        2.1787178718
 H         -5.7884812201        2.0839625118       -1.8703646779
 H         -6.3935803798        3.5835778414       -1.1653214569
 H         -4.9895471594        3.1312425500        0.8803468326
 H         -4.0985253497        3.4538341408       -0.6168966274
 O         -2.9464406200        1.4059967508       -0.8769036788
 C         -2.0945340401        0.3116175908       -0.9394261996
 O         -1.2481732203        0.3836350512       -1.8521828298
 O         -3.4324341098       -1.5617996707        1.8563625695
 C         -1.3387826302       -1.9177562999       -0.0270613811
 C          0.0385991100       -1.4547677703        0.3767519789
 C          0.3231656102       -1.2707744811        1.7273666189
 C          1.5538500204       -0.7880276015        2.1294375890
 C          2.5238655702       -0.4691459210        1.1944141990
 C          2.2426107199       -0.6305150002       -0.1548769810
 C          1.0129947598       -1.1373087498       -0.5559186611
 H          0.8045112596       -1.2459162992       -1.6083645411
 N          3.2157159198       -0.3009713297       -1.1136050810
 S          4.0417723400        1.1502677801       -0.9484825603
 O          3.2525559302        2.1490489598       -0.2650419896
 O          4.4889273398        1.4847325508       -2.2833181702
 C          5.4603186801        0.7109592493        0.0370322991
 C          5.7706286104        1.4457105386        1.1645470295
 C          6.8858502405        1.0933515581        1.9090069991
 C          7.6676980303        0.0187830382        1.5141368683
 C          7.3441993300       -0.7075228311        0.3776648479
 C          6.2316597999       -0.3596269505       -0.3714965317
 H          5.9476589397       -0.8961512999       -1.2612190019
 H          7.9543066699       -1.5428411410        0.0739495873
 H          8.5340952904       -0.2541481422        2.0956402680
 H          7.1385972708        1.6574578575        2.7924212494
 H          5.1297531506        2.2693613585        1.4369444601
 H          2.8968797396       -0.4213982991       -2.0645290610
 H          3.4816160403       -0.0808393113        1.4998782990
 H          1.7618656706       -0.6550900921        3.1802622290
 H         -0.4413662796       -1.5000709614        2.4565751990
 H         -1.7177098801       -2.5847497203        0.7590612085
 C         -1.3783024705       -2.6531323791       -1.3500400016
 C         -0.8095564207       -4.0370217091       -1.4361636325
 C         -2.2919878007       -3.8302290589       -1.5053515621
 H         -2.7904120409       -3.9727289682       -2.4525733321
 H         -2.8891344805       -4.1147186293       -0.6514788921
 H         -0.2879944409       -4.3258029286       -2.3358129428
 H         -0.3983147606       -4.4610736197       -0.5327927928
 H         -1.2644110506       -2.0017082686       -2.2082044912
