  62
        -98.93590288
 C         -2.5135668830       -1.0337238511        0.5672156434
 C         -2.4313734251        0.2236300816        1.2204130248
 C         -3.5436452207        1.1512262728        0.9906450643
 C         -4.5822375079        0.7672049483        0.2269384898
 C         -5.8055066561        1.5862142593       -0.0843187222
 C         -5.6218194054        2.5615786400       -1.2550298255
 C         -4.7407455208        3.7757567899       -0.9584734615
 H         -4.8755528320        4.4787027610       -1.7828079287
 H         -5.0929558366        4.2665898218       -0.0508034805
 C         -3.2450576004        3.4558027514       -0.8244336771
 H         -2.6629034824        4.1820634931       -1.3961419127
 H         -3.0399789832        2.4731576713       -1.2561092917
 C         -2.7159285989        3.4827046737        0.6098784029
 H         -1.6591014555        3.2008329695        0.5914543327
 H         -2.7861326265        4.4974925176        1.0082576359
 C         -3.4431906238        2.5303736614        1.5682367569
 H         -2.8615760963        2.4625851036        2.4910492883
 H         -4.4338725009        2.9181111286        1.8052098512
 H         -6.6139166463        2.9204492504       -1.5381547105
 H         -5.2106874720        2.0128725489       -2.1053469667
 H         -6.5945300953        0.8782501759       -0.3464599119
 H         -6.1127703092        2.1367811891        0.8051795785
 O         -4.6453719299       -0.4605872133       -0.3488168345
 C         -3.6085474696       -1.3795117941       -0.2259706597
 O         -3.8071332523       -2.4362616322       -0.8521075115
 H          1.2410270824       -1.1898951431        0.9602141558
 C          0.9489064551       -1.3775308888       -0.0622093086
 C         -0.3433479979       -1.7907508132       -0.3503838902
 C         -0.7024322378       -1.9983150836       -1.6799311164
 C          0.2185736011       -1.7991248309       -2.6911179515
 C          1.5048014292       -1.3780667249       -2.4006324186
 C          1.8719985342       -1.1637042071       -1.0776082808
 N          3.1814705709       -0.7629039264       -0.7563340281
 S          3.3868176460        0.3867150046        0.4674414712
 O          3.2830048462       -0.2730235464        1.7440316325
 O          2.5091714163        1.5127254302        0.2401743554
 C          5.0828383919        0.8536889076        0.1745086936
 C          6.0842939736        0.0000043132        0.5975133236
 C          7.4041232074        0.3408094128        0.3484897870
 C          7.6993548711        1.5226635184       -0.3151402312
 C          6.6838976570        2.3700997782       -0.7316847564
 C          5.3613251840        2.0343773489       -0.4871549698
 H          4.5388866482        2.6649476998       -0.7848256501
 H          6.9161694357        3.2895649536       -1.2443492835
 H          8.7274888556        1.7862401840       -0.5066658067
 H          8.1964800081       -0.3140083401        0.6731670986
 H          5.8069286237       -0.9019467167        1.1174322070
 H          3.7120179893       -0.5031746909       -1.5779128393
 H          2.2195722314       -1.2155069447       -3.1932561232
 H         -0.0705361074       -1.9647115998       -3.7181576566
 H         -1.7105115925       -2.3121533229       -1.9052629616
 C         -1.3413745785       -1.9794634064        0.7639544392
 H         -0.8609576411       -1.6332892425        1.6933962746
 C         -1.7583717216       -3.4289717324        0.9760144892
 C         -1.3247943431       -4.5573190644        0.0924910020
 C         -0.7463063441       -4.4224962272        1.4664896167
 H         -1.0383012644       -5.1285128138        2.2290615634
 H          0.2755979914       -4.0814991135        1.5476417214
 H         -0.6888903875       -4.3356347821       -0.7497068165
 H         -2.0396807574       -5.3437228270       -0.0956557688
 H         -2.7563117666       -3.5083628756        1.3940459171
 O         -1.4745225544        0.5501707400        1.9746048410
