  62
        -98.93971666
 C          2.4908917094        0.9868879136       -0.0766169186
 C          3.7009522119        1.0797207145        0.6512652556
 C          4.8904616508        0.5223334484       -0.0055706887
 C          4.7699228271       -0.0238604082       -1.2296289165
 C          5.8872264675       -0.6766481469       -1.9899018613
 C          5.9567166657       -2.1811350741       -1.6930995569
 C          5.9321793042       -2.5185222400       -0.2023088814
 H          4.9598455060       -2.2390886018        0.2102707634
 H          6.0175801016       -3.6037113941       -0.1129574254
 C          7.0429840299       -1.8487598432        0.6187353030
 H          7.4775695340       -2.5916013196        1.2909818808
 H          7.8387615707       -1.5069859173       -0.0440290475
 C          6.5727953720       -0.6819177960        1.4892350398
 H          5.7143908635       -0.9952376798        2.0890390068
 H          7.3795731100       -0.4279400753        2.1819668282
 C          6.1939562068        0.6010433225        0.7385403556
 H          7.0051680264        0.8865846544        0.0658842797
 H          6.0672554454        1.3944848677        1.4809735197
 H          5.1012183295       -2.6675070909       -2.1675324457
 H          6.8675206975       -2.5802144933       -2.1431999506
 H          5.7059466604       -0.5342931438       -3.0565196216
 H          6.8283596175       -0.1992555882       -1.7240693485
 O          3.5925421438       -0.0849344092       -1.9022823869
 C          2.4220887725        0.4073860614       -1.3434986821
 O          1.4149590784        0.2775498764       -2.0642091584
 O          3.7812867560        1.6015121427        1.7963262606
 C          1.2167211677        1.5276064563        0.5470425758
 C          0.2096889472        0.4134259559        0.6940799651
 C          0.5888966204       -0.7398641627        1.3769699786
 C         -0.2915317104       -1.7923331683        1.5322688372
 C         -1.5710614305       -1.7213105761        1.0090918000
 C         -1.9640264158       -0.5732778082        0.3364505716
 C         -1.0787964155        0.4898560249        0.1919114559
 H         -1.3989884716        1.3747756078       -0.3353708239
 N         -3.2542893409       -0.4960749728       -0.2154172626
 S         -4.5420710891       -1.1133807951        0.6840305163
 O         -4.4642214768       -0.6446478653        2.0498392846
 O         -4.5797254461       -2.5442179195        0.5125182208
 C         -5.9263064079       -0.3684498684       -0.1547621992
 C         -6.3781007567       -0.9443423524       -1.3271264164
 C         -7.4385206227       -0.3549674920       -1.9967228964
 C         -8.0255245673        0.7935964533       -1.4864500741
 C         -7.5617802116        1.3591158191       -0.3082199842
 C         -6.5005826512        0.7755613175        0.3660750609
 H         -6.1128365376        1.1753734891        1.2893408204
 H         -8.0222417291        2.2502329233        0.0871346896
 H         -8.8516078241        1.2493848232       -2.0091135825
 H         -7.8035113049       -0.7924959084       -2.9119208608
 H         -5.8971701729       -1.8412814357       -1.6810420267
 H         -3.4625921765        0.4240079584       -0.5781481192
 H         -2.2678093943       -2.5364865896        1.1199140129
 H          0.0187866871       -2.6801916990        2.0632453847
 H          1.5894444306       -0.7992976016        1.7841448622
 H          1.5044680397        1.8605400891        1.5553593406
 C          0.7093181792        2.7219418056       -0.2324453596
 C         -0.1363278239        3.7582040598        0.4443018296
 C          1.2786538380        4.0751397865        0.0664461915
 H          1.4552138161        4.7528852161       -0.7552034755
 H          2.0180259402        4.1393912300        0.8512626913
 H         -0.9311359600        4.2245949753       -0.1181777764
 H         -0.3616909254        3.6129199901        1.4900816547
 H          0.5022205003        2.4853391981       -1.2701589610
