  62
        -98.94047309
 C          1.6445223753        1.0032901177        0.8712168573
 C          2.8866659004        1.2343408992        0.2294677737
 C          3.8975447557        0.1753600416        0.3974440848
 C          3.5949748127       -0.9327654642        1.0960003119
 C          4.5093365598       -2.1079606516        1.2840059322
 C          4.3115872848       -3.1526358353        0.1765394817
 C          4.3240644967       -2.5669537540       -1.2354203629
 H          4.2060290236       -3.3985316008       -1.9334261749
 H          3.4550098808       -1.9168195125       -1.3597242550
 C          5.5963782929       -1.7829314940       -1.5858122374
 H          5.9263242875       -2.0778156562       -2.5842165831
 H          6.3958783492       -2.0434964114       -0.8912133424
 C          5.4189198384       -0.2636937818       -1.6060298876
 H          4.5602059311       -0.0030030764       -2.2295994670
 H          6.3055081230        0.1763925437       -2.0703973359
 C          5.2407262084        0.4049888878       -0.2371548311
 H          6.0420265326        0.0889157348        0.4339647361
 H          5.3216695516        1.4860538666       -0.3842452294
 H          5.0980240326       -3.9040835907        0.2678626618
 H          3.3500702246       -3.6464462984        0.3337798005
 H          5.5407923568       -1.7607289922        1.2899762052
 H          4.2854090888       -2.5666252851        2.2486901533
 O          2.3837492054       -1.1298436937        1.6778473508
 C          1.3885339048       -0.1731770302        1.5803765374
 O          0.3286389012       -0.4775641447        2.1639806136
 O          3.1595107886        2.2562882797       -0.4492200065
 C          0.4827097679        1.9825278156        0.8228375885
 C         -0.4243862820        1.6480791842       -0.3332832434
 C          0.0788685852        1.4888933457       -1.6213308886
 C         -0.7663631061        1.1667854425       -2.6666720768
 C         -2.1206422331        0.9805390337       -2.4467616538
 C         -2.6324106351        1.1335863809       -1.1639909514
 C         -1.7831757288        1.4759104160       -0.1195070933
 H         -2.1943532461        1.5894251640        0.8720153374
 N         -4.0043835136        0.9649773573       -0.9131655475
 S         -4.5161909031        0.0226386202        0.3737226539
 O         -5.9333007896       -0.1536335077        0.1443657601
 O         -4.1470860343        0.6468732808        1.6172432400
 C         -3.6770182157       -1.5353153599        0.1537686930
 C         -4.3084307522       -2.5040887199       -0.6039083137
 C         -3.6575365792       -3.7023892720       -0.8439080499
 C         -2.3840716349       -3.9086018944       -0.3337901320
 C         -1.7644687744       -2.9259078576        0.4214949347
 C         -2.4122129438       -1.7256311552        0.6720675491
 H         -1.9352206411       -0.9606785729        1.2643197699
 H         -0.7750028191       -3.0713066642        0.8264019454
 H         -1.8728423567       -4.8396541118       -0.5219914014
 H         -4.1409303263       -4.4696121267       -1.4270387181
 H         -5.3012500229       -2.3043883386       -0.9736843902
 H         -4.5500916254        0.7528378812       -1.7364315275
 H         -2.7780735804        0.7216164398       -3.2627453198
 H         -0.3665817243        1.0511404337       -3.6627509211
 H          1.1362098288        1.6280436947       -1.7907368793
 H         -0.0895376674        1.8013687203        1.7477378591
 C          0.9125433922        3.4424665230        0.8438758068
 C          0.7420906300        4.3738834128       -0.3144977960
 C         -0.1324019779        4.5180290372        0.8923058822
 H          0.0204796044        5.3602774025        1.5500770021
 H         -1.1640475923        4.2096857091        0.8033338054
 H          1.5190877790        5.1031712308       -0.4850934939
 H          0.2996246710        3.9906211007       -1.2202332198
 H          1.7946343724        3.5964245260        1.4564158448
