  62
        -98.94368480
 C         -1.5755184306       -1.6921337351       -0.3982362403
 C         -1.5900332644       -0.4935577187       -1.1554424388
 C         -2.8235619964        0.3033505628       -1.0652768912
 C         -3.8494972592       -0.1190495614       -0.3063259007
 C         -5.1920801725        0.5477957733       -0.1705596094
 C         -5.2397096630        1.6766423053        0.8671411930
 C         -4.5157237486        2.9601236098        0.4598531012
 H         -4.8614544321        3.2757898070       -0.5251332467
 H         -4.8071815675        3.7348518477        1.1718574473
 C         -2.9856057995        2.8433634689        0.4574350965
 H         -2.6791860065        1.9666618226        1.0331766190
 H         -2.5463822740        3.7094887976        0.9580014742
 C         -2.3471792703        2.7600716243       -0.9285456701
 H         -2.5050897143        3.6999805902       -1.4633100524
 H         -1.2720701266        2.6291696184       -0.7814387186
 C         -2.8658820655        1.6089224493       -1.8002997213
 H         -3.8800437699        1.8231735301       -2.1389051135
 H         -2.2153413383        1.5210287179       -2.6741187576
 H         -4.8218904254        1.3071308764        1.8065197974
 H         -6.2915420165        1.9156129902        1.0411283225
 H         -5.5057679108        0.9335260562       -1.1412623289
 H         -5.8928870443       -0.2314991089        0.1372943250
 O         -3.7913505848       -1.2671705431        0.4209590323
 C         -2.6564223757       -2.0599946969        0.4072597823
 O         -2.7352343504       -3.0729055860        1.1332242975
 H          0.4674141247       -0.2016173627        0.3863537575
 C          0.9416266374       -0.9929699730        0.9418370255
 C          0.5988664928       -2.3137388547        0.6906205456
 C          1.2015660924       -3.3163947097        1.4426633897
 C          2.1345658835       -3.0009927847        2.4140646354
 C          2.4781955522       -1.6841241954        2.6574457576
 C          1.8669997175       -0.6704695577        1.9249098102
 N          2.1637278747        0.6656065265        2.2018111434
 S          1.9305843324        1.9432351530        1.1571394985
 O          2.5301605353        3.0594569922        1.8591699184
 O          0.5367594273        2.0787090485        0.8270255665
 C          2.9181776316        1.5799126930       -0.2818635080
 C          4.2863618727        1.7345011171       -0.1524926998
 C          5.1010838868        1.4663877101       -1.2387627309
 C          4.5354257768        1.0539813571       -2.4365641466
 C          3.1627859701        0.9076056969       -2.5498320188
 C          2.3391829917        1.1672281434       -1.4635362622
 H          1.2698665001        1.0404435723       -1.5338556944
 H          2.7169214163        0.5895611544       -3.4785038408
 H          5.1671102203        0.8478546843       -3.2862192298
 H          6.1694177693        1.5821724506       -1.1515580983
 H          4.6820615787        2.0809105534        0.7883942186
 H          2.9151157026        0.8255572770        2.8540519213
 H          3.1990344123       -1.4356678148        3.4211585388
 H          2.5965437482       -3.7876917812        2.9908892290
 H          0.9191863716       -4.3455330867        1.2760258073
 C         -0.4047326968       -2.6607892034       -0.3811212791
 H         -0.8436186988       -3.6346284458       -0.1088277812
 C          0.2429776033       -2.8256520559       -1.7507980310
 C          1.6015328519       -2.2973201415       -2.0870026741
 C          1.3916563450       -3.7723116345       -1.9388247732
 H          1.4078525137       -4.3901252660       -2.8238582957
 H          1.7977034459       -4.2483202429       -1.0597894720
 H          1.7469747099       -1.8885015773       -3.0744090794
 H          2.1493769186       -1.7759383916       -1.3172157876
 H         -0.4941310641       -2.7955506823       -2.5466117500
 O         -0.6496183449       -0.1013690964       -1.8912733152
