  62
        -98.93563564
 C         -2.4227996146       -1.0761289044        0.4143728103
 C         -2.5067538142        0.0956654715       -0.3743786129
 C         -3.6558305006        0.9745694598       -0.1013938785
 C         -4.5271760038        0.6365773557        0.8663288999
 C         -5.7844330936        1.3843619102        1.2088081060
 C         -6.8808325018        1.0767241002        0.1689116319
 C         -7.3034795218        2.2786285397       -0.6762052492
 H         -7.9090695500        1.9003315784       -1.5025692361
 H         -7.9395332380        2.9301478042       -0.0733135460
 C         -6.1635847035        3.1307223313       -1.2425486085
 H         -6.5970376072        3.7664110909       -2.0175957757
 H         -5.7852541602        3.7993334907       -0.4679174010
 C         -4.9823309187        2.3577232064       -1.8432312148
 H         -4.6499023134        2.8875379191       -2.7382759874
 H         -5.2954686155        1.3631130118       -2.1615039582
 C         -3.7589251952        2.2346541661       -0.9155428214
 H         -2.8526774878        2.2441001009       -1.5284545578
 H         -3.7149277967        3.1027316545       -0.2521029140
 H         -6.5189876621        0.2799321728       -0.4843272253
 H         -7.7651157655        0.6883487495        0.6764790887
 H         -6.0978803615        1.0552058580        2.1996882199
 H         -5.5791003364        2.4519068831        1.2446857756
 O         -4.4020652060       -0.4918395263        1.6131150329
 C         -3.3521517394       -1.3712127702        1.4115946565
 O         -3.3540276317       -2.3601504740        2.1723343645
 H          0.8962716421       -1.5751762661       -1.4362985173
 C          1.0302615591       -1.1926721546       -0.4366566243
 C          0.0292218867       -1.3538826490        0.5064714813
 C          0.2349315044       -0.8483956880        1.7880797297
 C          1.4069669958       -0.1926086372        2.1095206943
 C          2.3985795161       -0.0190212908        1.1588731169
 C          2.2063228944       -0.5221167813       -0.1195423129
 N          3.1980369333       -0.3332780802       -1.0942793407
 S          4.7992768402       -0.6400244765       -0.7106331905
 O          5.4460392557       -0.9001202426       -1.9782583096
 O          4.9157125988       -1.6736381486        0.2919368321
 C          5.3947637069        0.9082819833       -0.0633251873
 C          5.2110787755        2.0477380009       -0.8218242766
 C          5.6792353790        3.2577681447       -0.3352566760
 C          6.3223415467        3.3075329030        0.8926547401
 C          6.5024422379        2.1540434949        1.6403617935
 C          6.0355522652        0.9405059878        1.1597287912
 H          6.1472575542        0.0194853289        1.7095720200
 H          7.0029313466        2.1946561486        2.5945060686
 H          6.6852352895        4.2509909190        1.2688949067
 H          5.5403842708        4.1570693106       -0.9135520961
 H          4.7075774245        1.9681295069       -1.7708294105
 H          2.9578103956       -0.6967381139       -2.0046994564
 H          3.3131039175        0.4969592136        1.4013127182
 H          1.5507326242        0.1923908404        3.1077595548
 H         -0.5433997270       -0.9788247156        2.5281738869
 C         -1.2763002131       -2.0524666273        0.2127531608
 H         -1.4137022176       -2.8394622704        0.9679335351
 C         -1.3475534458       -2.6815275174       -1.1623042229
 C         -0.6717885113       -3.9942978538       -1.4182384428
 C         -2.1671769651       -3.9208246115       -1.3516021143
 H         -2.7304785378       -4.0319274293       -2.2659944528
 H         -2.6628443405       -4.3270645276       -0.4818546649
 H         -0.2094750690       -4.1605283905       -2.3797822852
 H         -0.1484542643       -4.4552127671       -0.5939416223
 H         -1.3631095282       -1.9487002234       -1.9606179025
 O         -1.6686911676        0.3960906335       -1.2643242172
