  62
        -98.94825156
 C          0.7852289124        1.1628851028        0.6004994553
 C          1.2480967646        0.6601956240       -0.6393028730
 C          2.1911997371       -0.4616647070       -0.5540810403
 C          2.4695174669       -1.0109450221        0.6412467073
 C          3.4227462381       -2.1479150445        0.8918141210
 C          4.8878317438       -1.7063102066        1.0206062233
 C          5.5579022113       -1.2799684406       -0.2865062945
 H          6.6292597819       -1.2108071657       -0.0876688936
 H          5.4165511237       -2.0580093922       -1.0370732760
 C          5.0720782740        0.0672493597       -0.8397120305
 H          4.5566921496        0.6205399624       -0.0510648590
 H          5.9331042663        0.6685561735       -1.1403900377
 C          4.1481540793       -0.0413648506       -2.0531035244
 H          3.8327327487        0.9664944435       -2.3340802402
 H          4.6980615159       -0.4688458912       -2.8943368833
 C          2.8889795405       -0.8846069955       -1.8109654092
 H          2.1999921202       -0.7226918975       -2.6426018322
 H          3.1520630813       -1.9400345258       -1.7670115699
 H          4.9440508615       -0.8882828813        1.7426824269
 H          5.4474674698       -2.5497407333        1.4317618843
 H          3.1207533954       -2.6074158107        1.8353145144
 H          3.3356730494       -2.8871995766        0.0960114806
 O          1.8899466837       -0.5848405015        1.7967061076
 C          1.0804021077        0.5397215502        1.8119640441
 O          0.6864797438        0.8753863571        2.9487505561
 O          0.9133390493        1.1340663355       -1.7545974871
 C         -0.0616183836        2.4226366224        0.6358042067
 C         -1.3178165654        2.2271495642       -0.1751151712
 C         -1.7153959512        3.0753906607       -1.1997659800
 C         -2.8793836859        2.8210331576       -1.9041330953
 C         -3.6680856817        1.7273299537       -1.6007114462
 C         -3.2864008588        0.8814718445       -0.5638740309
 C         -2.1199938743        1.1362700397        0.1383800521
 H         -1.8313694934        0.4836371362        0.9505375082
 N         -4.0814925198       -0.2177833320       -0.2182088516
 S         -3.5067377038       -1.5052204722        0.6543457187
 O         -4.5047612142       -2.5358621187        0.4534906627
 O         -3.2758019890       -1.1253310226        2.0262431029
 C         -1.9825711107       -2.0448996385       -0.1002332855
 C         -1.8039115605       -1.9467828188       -1.4650683523
 C         -0.6579018221       -2.4826233702       -2.0301008240
 C          0.2752735111       -3.1204263479       -1.2295366233
 C          0.0853892966       -3.2059244984        0.1403987943
 C         -1.0508928030       -2.6587676386        0.7122103555
 H         -1.2319439023       -2.6925800514        1.7753965662
 H          0.8123073932       -3.6981242479        0.7660209713
 H          1.1543837337       -3.5552949505       -1.6769317233
 H         -0.5004284442       -2.4050234981       -3.0936441571
 H         -2.5460125011       -1.4561272196       -2.0732437123
 H         -4.8210048080       -0.4603460843       -0.8590484377
 H         -4.5738335891        1.5280434386       -2.1522665303
 H         -3.1741169437        3.4823918223       -2.7045125478
 H         -1.1116293624        3.9304381925       -1.4538045439
 H         -0.3567050175        2.5617904793        1.6863601556
 C          0.7697332769        3.6114010039        0.1987211108
 C          0.4328570677        4.9871943326        0.6868309123
 C          1.6523794092        4.2860242867        1.2035209839
 H          2.6235616691        4.6353472063        0.8862443758
 H          1.6358610471        3.9030768039        2.2139870094
 H          0.5694992695        5.8219674621        0.0161737125
 H         -0.4121559972        5.0881203516        1.3510930257
 H          1.1542062718        3.5040819803       -0.8090200014
