  62
        -98.94062466
 C          1.7460382696        0.3900868697        0.4202451002
 C          2.9184558596        0.5642040593        1.1991417004
 C          4.1686157197        0.7498378395        0.4548268405
 C          4.1508108797        0.7349158700       -0.8901498695
 C          5.3391721998        0.9234491603       -1.7936576394
 C          6.1503298897       -0.3577150897       -2.0317723199
 C          6.9885491996       -0.8284955203       -0.8424236801
 H          7.6675165195       -1.5986168802       -1.2139643603
 H          7.6011345397       -0.0020343005       -0.4807535497
 C          6.1703054295       -1.4115970407        0.3182357597
 H          5.1663231395       -1.6608389204       -0.0334139005
 H          6.6301899794       -2.3429112209        0.6567179393
 C          6.0548092495       -0.4949166612        1.5362239300
 H          7.0426185795       -0.3459554715        1.9779475702
 H          5.4250339094       -0.9900502414        2.2799102698
 C          5.4412244897        0.8788982990        1.2362512506
 H          5.2009643797        1.3613070586        2.1869543608
 H          6.1564382597        1.5011860992        0.6987306409
 H          5.4654017096       -1.1538553595       -2.3327550303
 H          6.8244867797       -0.1653107494       -2.8695671698
 H          4.9482272699        1.2662617807       -2.7540120193
 H          5.9906815499        1.6973233601       -1.3867890390
 O          3.0083482798        0.5536716904       -1.6022193196
 C          1.7838215497        0.3534130703       -0.9746937698
 O          0.8413908897        0.1627066407       -1.7645589199
 O          2.9191761896        0.5594027187        2.4590505504
 C          0.4399808296        0.1644891695        1.1596843301
 C         -0.2995617605       -1.0133158402        0.5766287695
 C          0.3602881894       -2.2363726702        0.4757166191
 C         -0.2710968607       -3.3392730499       -0.0626611114
 C         -1.5871944307       -3.2570390596       -0.4848057615
 C         -2.2594634906       -2.0481393196       -0.3742938310
 C         -1.6130486105       -0.9346838498        0.1450116195
 H         -2.1478867804       -0.0017250398        0.1929459299
 N         -3.5965576805       -1.9192743293       -0.7842339410
 S         -4.6676122505       -1.1367867996        0.2382910993
 O         -4.3095600506       -1.3291884102        1.6248034892
 O         -5.9733190505       -1.6247658293       -0.1530613310
 C         -4.5515698503        0.5869316206       -0.1894883700
 C         -4.5935915102        0.9461802411       -1.5218997198
 C         -4.5465913601        2.2908335913       -1.8530653593
 C         -4.4655420100        3.2479837708       -0.8528166288
 C         -4.4268436501        2.8707364303        0.4809973510
 C         -4.4710870203        1.5271960801        0.8185995604
 H         -4.4346708503        1.1880911497        1.8417561003
 H         -4.3602512201        3.6160549900        1.2577093713
 H         -4.4285084699        4.2940519410       -1.1136225784
 H         -4.5721257800        2.5887781817       -2.8888311391
 H         -4.6567106103        0.1755094815       -2.2717699302
 H         -4.0031877206       -2.7599245191       -1.1686583114
 H         -2.0857959907       -4.1202014794       -0.8996676918
 H          0.2598033092       -4.2759382699       -0.1462714618
 H          1.3853272094       -2.3058275004        0.8151873291
 H          0.7515351195       -0.1113464009        2.1820938600
 C         -0.4258279403        1.4084640196        1.2945535206
 C          0.1740122498        2.7811149095        1.2521864712
 C         -0.7059958402        2.3139411701        0.1338086709
 H         -1.6945744801        2.7400060602        0.0445064911
 H         -0.2512205501        2.0632850904       -0.8112630092
 H         -0.2077702401        3.5267731393        1.9330957315
 H          1.2361352999        2.8584672495        1.0703408912
 H         -1.2356257603        1.2612302593        2.0036464805
