  62
        -98.95045937
 C         -1.7595388599       -1.2910636314       -0.2386631800
 C         -2.8521808504       -0.6542733120        0.3928365298
 C         -3.2737603411        0.6261417777       -0.1885161503
 C         -2.6206836213        1.1095562580       -1.2611869802
 C         -2.9318947220        2.4119113278       -1.9395043003
 C         -2.0874001828        3.5588641084       -1.3692183803
 C         -2.1018237529        3.6405837584        0.1572303597
 H         -1.5745312825        2.7728712988        0.5616625098
 H         -1.5141063935        4.5178336688        0.4390101297
 C         -3.5013264731        3.7416205376        0.7798698095
 H         -4.2179184632        4.0737284271        0.0273554995
 H         -3.4771548136        4.5020188377        1.5634744995
 C         -4.0079325123        2.4523787074        1.4294344296
 H         -3.2388865522        2.0580623779        2.0992750897
 H         -4.8802909725        2.6997363869        2.0407205995
 C         -4.4261259116        1.3360478270        0.4640635996
 H         -4.9567679812        0.5753122368        1.0444661996
 H         -5.1112037017        1.7357547366       -0.2865148405
 H         -1.0506004426        3.4182887590       -1.6841444702
 H         -2.4509966233        4.4981717781       -1.7914010204
 H         -3.9909625422        2.6329743972       -1.8194814704
 H         -2.7101005618        2.3051855579       -3.0030366503
 O         -1.5765768808        0.4688052386       -1.8428629301
 C         -1.0976360502       -0.7230291410       -1.3261289400
 O         -0.1028803998       -1.1799943705       -1.9231537199
 O         -3.4480197702       -1.1366858723        1.3956628998
 C         -1.2352895492       -2.5995785610        0.3244463301
 C          0.2185614207       -2.4508058301        0.6996942902
 C          1.1772028813       -3.4281796695        0.4626902104
 C          2.5012101312       -3.2114831887        0.8051780705
 C          2.9016202604       -2.0116975284        1.3643709304
 C          1.9474966998       -1.0329725290        1.6154066703
 C          0.6175701299       -1.2710017598        1.3144884702
 H         -0.1103316006       -0.5000198703        1.5210677601
 N          2.2959518090        0.2278395012        2.1479772103
 S          2.0728271083        1.5314705510        1.1121056602
 O          2.5539458975        2.6836589414        1.8447962501
 O          0.7041798483        1.5806569302        0.6722175500
 C          3.1835506986        1.1866522216       -0.2405753497
 C          4.4517700682        1.7352843424       -0.2002356096
 C          5.3582378885        1.4083012729       -1.1949190295
 C          4.9862005492        0.5310190726       -2.2029362895
 C          3.7118042995       -0.0134700782       -2.2259755496
 C          2.7961429792        0.3124027413       -1.2360781497
 H          1.7979662295       -0.0985871093       -1.2420233498
 H          3.4137745000       -0.6956759984       -3.0059807096
 H          5.6919603794        0.2705473530       -2.9759470794
 H          6.3489347083        1.8332516735       -1.1793611295
 H          4.6930844378        2.4133724326        0.6026452804
 H          3.2363274789        0.2636252318        2.5188679903
 H          3.9389675503       -1.8297497778        1.6022099505
 H          3.2343311316       -3.9798696283        0.6133490606
 H          0.8885719519       -4.3585443797        0.0014745404
 H         -1.8156796191       -2.7784448413        1.2423564101
 C         -1.4918507784       -3.7353832912       -0.6447255099
 C         -1.7418046976       -5.1238078714       -0.1381576698
 C         -2.8676769780       -4.3241828621       -0.7192948399
 H         -3.2573136278       -4.6037689224       -1.6865624500
 H         -3.6132808383       -3.9227142225       -0.0485173400
 H         -1.3612452070       -5.9575042912       -0.7087747197
 H         -1.7298822276       -5.2761030613        0.9305028402
 H         -0.9471828284       -3.6169045510       -1.5748253398
