  62
        -98.94076352
 C         -1.1889097706       -1.3575019256        0.0777155625
 C         -2.0203887253       -0.8588317730        1.1036229541
 C         -2.7658236408        0.3820434737        0.8148060819
 C         -2.5894539134        0.9774081643       -0.3798461653
 C         -3.2722985685        2.2098739679       -0.9099687769
 C         -4.7183696909        1.9376379067       -1.3571801346
 C         -5.5349519850        1.0669834176       -0.4056943263
 H         -6.4920016391        0.8536588158       -0.8891123559
 H         -5.0246739150        0.1124210229       -0.2645928603
 C         -5.8302496286        1.6905850381        0.9563266971
 H         -6.3848493946        2.6206483878        0.8122457418
 H         -6.4804906314        0.9978548677        1.4969336264
 C         -4.6130945269        1.9838163538        1.8356911808
 H         -4.9834102160        2.1963353163        2.8430879307
 H         -4.0968702337        2.8802921998        1.5030312345
 C         -3.6290891528        0.8257089979        1.9715846926
 H         -4.1723638653       -0.0674255936        2.3011811105
 H         -2.9340409712        1.0554699969        2.7889297975
 H         -4.6822524433        1.4279206721       -2.3228866658
 H         -5.2220759798        2.8951484666       -1.4997658774
 H         -3.2397237631        3.0033516096       -0.1693625897
 H         -2.6992580209        2.5382711218       -1.7789658442
 O         -1.7508474601        0.4748495248       -1.3290528825
 C         -1.0261509649       -0.6852291584       -1.1338647061
 O         -0.2931792829       -1.0058264565       -2.0859218052
 O         -2.1404238852       -1.4235454730        2.2264815285
 C         -0.3899215614       -2.6256859746        0.3192558476
 C          1.0811126302       -2.3007895633        0.2428703810
 C          1.9866639554       -2.9879248022       -0.5532268019
 C          3.3142221266       -2.5959116508       -0.6045417811
 C          3.7680511639       -1.5208534608        0.1369415698
 C          2.8716183032       -0.8354902013        0.9472194415
 C          1.5450362942       -1.2293885241        0.9975513497
 H          0.8480414427       -0.6889137570        1.6266899808
 N          3.3196919221        0.2709116597        1.7036788168
 S          3.8586247472        1.5865410536        0.8156829846
 O          5.0955978079        1.2335974810        0.1676469032
 O          3.9191065679        2.6840798570        1.7545644183
 C          2.5902171335        1.8860649497       -0.4006949863
 C          1.5381487383        2.7153869752       -0.0672476728
 C          0.5305204399        2.9245935227       -0.9942362737
 C          0.5869291807        2.2945081160       -2.2276241804
 C          1.6427094898        1.4540901726       -2.5421251820
 C          2.6564584871        1.2455238762       -1.6214609118
 H          3.4955726285        0.6030785229       -1.8325872951
 H          1.6701729272        0.9502294603       -3.4942219520
 H         -0.2010304543        2.4482942643       -2.9477108379
 H         -0.2966918701        3.5722807150       -0.7504589447
 H          1.5353067190        3.1929187639        0.8999425557
 H          2.6333045556        0.5883203362        2.3743460328
 H          4.7931631588       -1.1903894329        0.0919031418
 H          4.0050195473       -3.1345212945       -1.2353227490
 H          1.6526813136       -3.8242560613       -1.1446035180
 H         -0.6228541336       -2.9294385536        1.3506011165
 C         -0.8247622943       -3.7255104155       -0.6248869564
 C         -0.6506883912       -5.1627005425       -0.2370449145
 C         -2.0202670846       -4.5557482904       -0.2695031563
 H         -2.6977230104       -4.8486935112       -1.0574793975
 H         -2.5100901358       -4.3449095224        0.6700942195
 H         -0.3896488730       -5.8765103575       -1.0036361824
 H         -0.2116426324       -5.3709101083        0.7269379007
 H         -0.6959024055       -3.4555145420       -1.6667519452
