  62
        -98.93453734
 C         -1.9223385880       -0.9684360123        0.1878429858
 C         -2.3239637077        0.0573315372        1.0770895924
 C         -2.4761265523        1.4073563493        0.5117460332
 C         -2.1954482893        1.6091833071       -0.7866869243
 C         -2.2160898502        2.9004732148       -1.5669888335
 C         -3.3686075489        3.8772775765       -1.3012893448
 C         -4.7157859739        3.2141938535       -0.9790141180
 H         -5.4834521793        3.6348400587       -1.6308782185
 H         -4.6623207996        2.1439132184       -1.1854410974
 C         -5.1575310914        3.4326593123        0.4698482800
 H         -6.2362995842        3.2733393413        0.5362247254
 H         -4.9621820935        4.4718348470        0.7426917003
 C         -4.5007602826        2.5145017111        1.4998927041
 H         -4.8126427177        2.8447713853        2.4935430358
 H         -4.8666489815        1.4919322217        1.3731634396
 C         -2.9644203457        2.4659418795        1.4589395273
 H         -2.5430176136        3.4404067447        1.2232252710
 H         -2.6085634328        2.1666571154        2.4489377154
 H         -3.4697249334        4.4936849854       -2.1961811478
 H         -3.0972147014        4.5479293006       -0.4873722155
 H         -1.2621222534        3.4078498704       -1.3927783387
 H         -2.2274791669        2.5958522151       -2.6165810872
 O         -1.7937372782        0.5982037941       -1.6060263255
 C         -1.6148117077       -0.6965594674       -1.1459587923
 O         -1.2053915121       -1.4869167385       -2.0172370324
 H          0.5635159158       -0.9715879071        1.0857771521
 C          0.7625373155       -1.9138803160        0.5937579433
 C         -0.2849981432       -2.7952610444        0.3536297650
 C         -0.0065768635       -4.0025133702       -0.2714659410
 C          1.2858622151       -4.2980779263       -0.6712570470
 C          2.3149066546       -3.3964628927       -0.4759234501
 C          2.0471073748       -2.1893881738        0.1616789392
 N          3.0667514819       -1.2469229244        0.3905763521
 S          2.6512377276        0.3901140519        0.3455072284
 O          2.1338955863        0.7689948495        1.6382204150
 O          1.8076835879        0.6760695365       -0.7929710630
 C          4.2636501392        1.1184182263        0.1178032166
 C          4.6683590806        1.4828466997       -1.1523551123
 C          5.9338347701        2.0218922324       -1.3242482284
 C          6.7695756061        2.1830644715       -0.2293936144
 C          6.3493395653        1.8126912212        1.0395921006
 C          5.0849601539        1.2743116211        1.2185662696
 H          4.7097878584        0.9807760342        2.1850004313
 H          7.0006329094        1.9421342158        1.8887591946
 H          7.7535346991        2.6029182721       -0.3659060958
 H          6.2611223552        2.3133982041       -2.3092194407
 H          3.9795852549        1.3458679049       -1.9708998604
 H          3.8963202606       -1.4307431227       -0.1577780741
 H          3.3147355425       -3.6174369466       -0.8174511895
 H          1.4891751991       -5.2363956442       -1.1648736739
 H         -0.8034470376       -4.6990299613       -0.4740057600
 C         -1.6641730789       -2.3480062367        0.7698421486
 H         -1.6493404531       -2.1797926985        1.8608263112
 C         -2.7532056129       -3.3757876602        0.5063511496
 C         -4.1577799817       -2.9502101012        0.2021674069
 C         -3.3279618474       -3.6064126761       -0.8580115222
 H         -3.5740089418       -4.6186718800       -1.1440553532
 H         -2.9481720193       -3.0012059157       -1.6656610442
 H         -4.3490113127       -1.8901162870        0.1163040753
 H         -4.9706191084       -3.5074871949        0.6431679109
 H         -2.6465319500       -4.2494136645        1.1423148481
 O         -2.5308419220       -0.1435895081        2.3054149834
