  62
        -98.93583906
 C         -2.5732017538       -1.2733994989        0.1680923401
 C         -2.5609354256       -0.1810651843       -0.7345990000
 C         -3.8771003995        0.3901938359       -1.0655019726
 C         -4.9874091017       -0.1371515432       -0.5207235889
 C         -6.3796628640        0.3815212256       -0.7317290210
 C         -6.7541144720        1.4138789428        0.3408802776
 C         -5.6994853407        2.5014834593        0.5464417760
 H         -6.0851794813        3.1895969403        1.3019023098
 H         -4.7941201357        2.0489465453        0.9580418296
 C         -5.3397427057        3.2856403925       -0.7232646954
 H         -5.3049972442        4.3494496592       -0.4789862599
 H         -6.1186746691        3.1512117547       -1.4747204019
 C         -3.9825377059        2.9241074211       -1.3299770610
 H         -3.2109118316        2.9667148942       -0.5566208363
 H         -3.7341731070        3.6794708660       -2.0803596497
 C         -3.9011370789        1.5543477627       -2.0155385645
 H         -4.7185042190        1.4517480491       -2.7322026600
 H         -2.9547841739        1.5145202805       -2.5628418538
 H         -7.7036736264        1.8737201550        0.0611982005
 H         -6.8959193705        0.8913652596        1.2898277013
 H         -6.4498677602        0.8281204819       -1.7215555606
 H         -7.0729625648       -0.4591511190       -0.6716394792
 O         -4.9601425586       -1.1868447830        0.3400398605
 C         -3.7592582685       -1.7596882468        0.7244580804
 O         -3.8769151882       -2.6810811743        1.5570942256
 H          1.1719495562       -1.3504196808       -0.4770418010
 C          0.9273185818       -0.7142341986        0.3593627356
 C         -0.2813670593       -0.8745037832        1.0164509155
 C         -0.5807513243       -0.0222159462        2.0760345314
 C          0.3006434266        0.9711032385        2.4562548840
 C          1.5014261645        1.1369315331        1.7889229260
 C          1.8112840603        0.2913460789        0.7331397240
 N          3.0191474813        0.4680494035        0.0343478354
 S          4.4121039448        0.7414333665        0.9477369780
 O          4.4755783092       -0.1961754807        2.0473774570
 O          4.4611014447        2.1360924983        1.3092194641
 C          5.6811891928        0.3831566394       -0.2508051353
 C          6.2690561679       -0.8675138311       -0.2606557121
 C          7.2366543349       -1.1456575368       -1.2132805391
 C          7.5951419794       -0.1750153508       -2.1365836970
 C          6.9959714972        1.0757988472       -2.1139294079
 C          6.0288763312        1.3611187243       -1.1633334992
 H          5.5429415546        2.3208448856       -1.1022712723
 H          7.2793822578        1.8283482694       -2.8320041784
 H          8.3485813011       -0.3939237820       -2.8766956030
 H          7.7066198064       -2.1158141485       -1.2315372727
 H          5.9653181152       -1.5881594598        0.4817360206
 H          3.1687555858       -0.2544165216       -0.6565511403
 H          2.1995500827        1.9076882617        2.0737143639
 H          0.0520892341        1.6258446341        3.2785766739
 H         -1.5225148508       -0.1461547540        2.5949305854
 C         -1.2891189390       -1.9338434977        0.6420201740
 H         -1.5703875368       -2.4655873620        1.5662527034
 C         -0.7376682038       -2.9873013156       -0.3069084576
 C         -1.6568761313       -3.8027828606       -1.1653443901
 C         -0.7281204496       -2.8104753824       -1.7945833803
 H          0.1193878763       -3.1869255395       -2.3491265593
 H         -1.1398536630       -1.8967996497       -2.1923099967
 H         -2.7110961112       -3.5693728973       -1.1296595794
 H         -1.4474347978       -4.8551558645       -1.2848768297
 H          0.1058943497       -3.5156533867        0.1278592059
 O         -1.5187680267        0.3006792767       -1.2475069751
