  62
        -98.93652728
 C         -1.8145366300       -1.2326292276       -0.1304607368
 C         -2.4765632789       -0.5846368383        0.9356462495
 C         -3.6438227001        0.2461172619        0.5861504756
 C         -3.9814159460        0.3824706776       -0.7090231101
 C         -5.1198937747        1.1672853955       -1.3104400100
 C         -5.3624606734        2.5757948384       -0.7462135293
 C         -6.6429366124        2.6866611039        0.0833567663
 H         -6.9713373690        3.7284602301        0.0809729129
 H         -7.4237117489        2.0983906769       -0.4032320787
 C         -6.5131018331        2.2471652715        1.5407924438
 H         -5.9276647804        2.9876448162        2.0903772670
 H         -7.5159757583        2.2401005684        1.9741094988
 C         -5.8763931014        0.8726671446        1.7559862183
 H         -6.1981130638        0.5057279352        2.7329550375
 H         -6.2401456242        0.1625746594        1.0142562740
 C         -4.3406613317        0.8982328960        1.7494475762
 H         -3.9608794150        0.3701425913        2.6297647548
 H         -3.9848606483        1.9287140672        1.8426276461
 H         -4.5018704693        2.8946663663       -0.1599626429
 H         -5.4481850407        3.2619352457       -1.5904700534
 H         -4.8874577514        1.2298642829       -2.3760066343
 H         -6.0327407968        0.5723681410       -1.2260576799
 O         -3.2933688800       -0.2391042348       -1.7094697590
 C         -2.2053600560       -1.0577726557       -1.4572916532
 O         -1.6855152691       -1.5518566600       -2.4745677675
 O         -2.1063502775       -0.6904999814        2.1374490433
 C         -0.6166175092       -2.1145200806        0.1703607751
 C          0.6204737615       -1.5538536780       -0.4878781126
 C          1.5226262659       -2.3263895533       -1.2067413116
 C          2.6350058666       -1.7443437338       -1.7912606866
 C          2.8781097526       -0.3896729528       -1.6648903704
 C          1.9931010321        0.3889050125       -0.9286641680
 C          0.8823508452       -0.1965985426       -0.3416049307
 H          0.1929123398        0.4136024018        0.2288788035
 N          2.2350825140        1.7639253342       -0.7787480401
 S          3.7975951177        2.2697752347       -0.4644557898
 O          3.6524612324        3.5242681972        0.2403603804
 O          4.5486634021        2.3235919383       -1.6940252324
 C          4.4904519476        1.0255209611        0.6105578100
 C          3.8625706948        0.7844706244        1.8166078077
 C          4.3708362858       -0.1963126565        2.6524122279
 C          5.4930477482       -0.9155875885        2.2701670971
 C          6.1150819002       -0.6580829423        1.0586437131
 C          5.6097558680        0.3205810236        0.2176632861
 H          6.0599291719        0.5517217610       -0.7339557439
 H          6.9885207591       -1.2174703817        0.7649230651
 H          5.8839662478       -1.6803303197        2.9225080208
 H          3.8873772452       -0.3973425275        3.5950424258
 H          2.9940097819        1.3633029083        2.0879997244
 H          1.5647592794        2.2410717211       -0.1950796199
 H          3.7275632916        0.0800327287       -2.1334110159
 H          3.3201958359       -2.3549361872       -2.3589062373
 H          1.3500748213       -3.3836194340       -1.3207029260
 H         -0.4779393836       -2.0552815448        1.2602628101
 C         -0.9085157290       -3.5516047121       -0.2060717489
 C         -0.2484671162       -4.6761959972        0.5326912403
 C         -1.7061410647       -4.3979099253        0.7389243302
 H         -2.4291151865       -5.0870716055        0.3289334568
 H         -2.0159512647       -3.9448516206        1.6694516361
 H          0.0289539301       -5.5620804422       -0.0183055254
 H          0.4329131429       -4.4193171154        1.3293501573
 H         -1.0977165086       -3.6728420312       -1.2666471010
