  62
        -98.93712731
 C         -2.5372133397       -1.2605943404        0.2527754071
 C         -2.7294918785       -0.3200344651       -0.7853045841
 C         -3.8321907727        0.6451799970       -0.6080838946
 C         -4.5785922054        0.6106349449        0.5107732294
 C         -5.7739118717        1.4339074459        0.9432220103
 C         -6.1337211694        2.7314940865        0.2242633643
 C         -5.1218033558        3.8630857781        0.4013588592
 H         -5.4276318122        4.6970918835       -0.2340634540
 H         -5.1601611249        4.2039861017        1.4389927353
 C         -3.6707815536        3.5061187173        0.0885532811
 H         -3.3219205616        2.7415095065        0.7858107804
 H         -3.0627679681        4.3985308916        0.2601329659
 C         -3.4067612114        3.0327276467       -1.3394638943
 H         -2.3228452877        2.9673824969       -1.4691566053
 H         -3.7834569142        3.7728087636       -2.0482739783
 C         -3.9992809056        1.6601629015       -1.7026185517
 H         -5.0442101080        1.7437154274       -1.9910009644
 H         -3.4511966358        1.2747441789       -2.5673164677
 H         -7.0828000566        3.0688819388        0.6496752774
 H         -6.3127362503        2.5416468001       -0.8299761948
 H         -5.6186666669        1.6452109958        2.0059706986
 H         -6.6343062770        0.7578829948        0.8870722512
 O         -4.3524909195       -0.3121284685        1.4905353739
 C         -3.3492964816       -1.2547523976        1.3911069176
 O         -3.2806530047       -2.0287741996        2.3663265701
 O         -2.0316818935       -0.2654481822       -1.8348974362
 C         -1.4705048114       -2.3445875927        0.2249043574
 C         -0.1048273078       -1.8072258096        0.5830204642
 C          0.5693326046       -2.2726325827        1.7059293425
 C          1.8335970159       -1.8017172991        2.0142403586
 C          2.4493896119       -0.8570579618        1.2128746246
 C          1.7827019605       -0.3825911225        0.0909152041
 C          0.5175330976       -0.8608920743       -0.2185505205
 H          0.0012120167       -0.4862194306       -1.0901894647
 N          2.3906424025        0.5935645055       -0.7200662869
 S          3.9305036731        0.2688218354       -1.3070827176
 O          4.0633884834        1.0752280986       -2.5007609304
 O          4.1489366696       -1.1509144533       -1.4634492356
 C          5.0157091038        0.9157922490       -0.0519819896
 C          4.8773000442        2.2414938264        0.3100458641
 C          5.7251053382        2.7636732483        1.2737506308
 C          6.6937135494        1.9573320735        1.8530991520
 C          6.8220016794        0.6292536486        1.4763745608
 C          5.9761613349        0.1003142467        0.5137547722
 H          6.0350039710       -0.9275192286        0.1929554455
 H          7.5758805832        0.0043248162        1.9275439657
 H          7.3527091336        2.3668770450        2.6023210284
 H          5.6284192602        3.7959803310        1.5693644833
 H          4.1149358678        2.8346267444       -0.1670295391
 H          1.7901672497        0.9152812002       -1.4664139467
 H          3.4338895988       -0.4866304800        1.4482074867
 H          2.3450661669       -2.1731709511        2.8890881541
 H          0.0906594636       -3.0025736587        2.3426615263
 H         -1.7615966174       -3.0588903745        1.0066616096
 C         -1.4177160266       -3.0842904487       -1.0991304706
 C         -0.8167700707       -4.4554720559       -1.1412677179
 C         -2.2957487151       -4.2790469864       -1.3093456543
 H         -2.7287493086       -4.4343533087       -2.2861485707
 H         -2.9403133010       -4.5747748442       -0.4941635896
 H         -0.2284622685       -4.7330814475       -2.0025316231
 H         -0.4587777892       -4.8733496358       -0.2124843550
 H         -1.2506669114       -2.4358598843       -1.9491376416
