  62
        -98.94320980
 C         -0.7811420684       -1.8903184599        0.1609961806
 C         -1.4467842694       -1.1612121834        1.1713208052
 C         -2.7006134647       -0.4909835475        0.7847628445
 C         -3.1369648282       -0.6074297050       -0.4814887469
 C         -4.3421273832        0.0458341403       -1.1000554304
 C         -3.9581483725        1.3867921386       -1.7504866655
 C         -4.0442724175        2.5963410762       -0.8220593694
 H         -3.6557768594        3.4551586812       -1.3743532627
 H         -5.0912166210        2.7990404825       -0.5843297534
 C         -3.2528077969        2.4577423197        0.4802742362
 H         -2.2828030761        2.0099302105        0.2540133769
 H         -3.0577560000        3.4616463402        0.8637681114
 C         -3.9929021002        1.6468728233        1.5546549981
 H         -4.0047068990        2.2139149706        2.4879820199
 H         -5.0333905045        1.5278733920        1.2525248416
 C         -3.3915059880        0.2729802775        1.8818691995
 H         -4.1754027396       -0.3643733897        2.3054073883
 H         -2.6303523248        0.3864959333        2.6606096877
 H         -2.9360529758        1.3020122505       -2.1311210378
 H         -4.6141891265        1.5649762267       -2.6053458696
 H         -5.1317011484        0.1774901831       -0.3657075036
 H         -4.6959481216       -0.6317746664       -1.8799798486
 O         -2.4744438333       -1.3360802922       -1.4216295479
 C         -1.2769791151       -1.9712171737       -1.1402031315
 O         -0.7697192797       -2.5680864225       -2.1092777679
 O         -1.0039327650       -1.0595840742        2.3484810958
 C          0.5562817312       -2.5285099326        0.4786375466
 C          1.6650169797       -1.8979770408       -0.3322920419
 C          2.8388215762       -2.5719533331       -0.6507147445
 C          3.8346299726       -1.9383915567       -1.3737365195
 C          3.6925554471       -0.6256519932       -1.7869169407
 C          2.5223873050        0.0568085452       -1.4743986893
 C          1.5315837125       -0.5810577772       -0.7459736927
 H          0.6196206469       -0.0482202519       -0.5324645010
 N          2.3168414621        1.3768703527       -1.8918956597
 S          1.2888452283        2.4044045892       -1.0753627441
 O         -0.0846763083        2.0118997551       -1.2667681345
 O          1.6446086866        3.7172954742       -1.5711935461
 C          1.7591547758        2.2669057365        0.6393091267
 C          3.0332779655        2.6716413568        0.9889586427
 C          3.4423132209        2.5390872284        2.3053043643
 C          2.5777451250        1.9989281765        3.2461389285
 C          1.3002076131        1.6045981818        2.8821002775
 C          0.8846599790        1.7427056350        1.5674366730
 H         -0.1024731907        1.4365587792        1.2586688094
 H          0.6231365405        1.1704792157        3.6005506565
 H          2.8994697700        1.8851386865        4.2693179016
 H          4.4334841052        2.8504287250        2.5931993410
 H          3.6748233148        3.0926978887        0.2321092285
 H          3.1126178701        1.8449888943       -2.2964882329
 H          4.4685035717       -0.1374173689       -2.3558943063
 H          4.7381894965       -2.4752886839       -1.6194473716
 H          2.9687388732       -3.5957390727       -0.3396530851
 H          0.7442939094       -2.2982713786        1.5390826735
 C          0.4924478569       -4.0341013976        0.3139962307
 C          1.2613006142       -4.9357514925        1.2319757239
 C         -0.2292986863       -4.8432268146        1.3487826360
 H         -0.8299884519       -5.6791946783        1.0234253110
 H         -0.6448156286       -4.3094339814        2.1911280066
 H          1.6858006004       -5.8418487284        0.8264653302
 H          1.8551613737       -4.4752899748        2.0070960771
 H          0.3785843230       -4.3322372642       -0.7221065332
