  62
        -98.93807761
 C         -2.5197858562       -1.1942672128        0.2420080968
 C         -2.7009366585       -0.3503737701       -0.8771441228
 C         -3.5665660348        0.8315920539       -0.6844878614
 C         -4.1203133726        1.0400949002        0.5245514533
 C         -4.9895064885        2.1880567948        0.9643060291
 C         -4.1862503230        3.4750500998        1.2156985888
 C         -3.1265681492        3.7891576268        0.1624196771
 H         -2.5539736141        4.6512570209        0.5150228732
 H         -2.4328605419        2.9491364518        0.0890248901
 C         -3.6675075357        4.1235672420       -1.2257068802
 H         -2.8131089109        4.4010218622       -1.8482118400
 H         -4.3226512704        4.9945798143       -1.1534684428
 C         -4.4279993849        3.0016957147       -1.9354070000
 H         -4.5420997481        3.2984650763       -2.9820699949
 H         -5.4321948705        2.8951649267       -1.5341840272
 C         -3.7157594023        1.6525144643       -1.9427308524
 H         -4.2196874780        0.9971510253       -2.6633331987
 H         -2.7009928648        1.7840066253       -2.3352688415
 H         -3.6780435124        3.3725382342        2.1779205394
 H         -4.8856433126        4.3091666727        1.2918783441
 H         -5.4603580097        1.8841732310        1.9018537829
 H         -5.7783998776        2.3580284204        0.2378100061
 O         -3.9048082673        0.2023556030        1.5807710485
 C         -3.1065516638       -0.9194522365        1.4751269210
 O         -2.9917144123       -1.5769385834        2.5311206247
 O         -2.1602145572       -0.5616064161       -1.9937135233
 C         -1.6392303210       -2.4243703864        0.1282573948
 C         -0.2357176165       -2.0315144205       -0.2680485816
 C          0.5129243797       -2.7262225350       -1.2088089627
 C          1.8033105332       -2.3266724841       -1.5120975279
 C          2.3747026977       -1.2331196739       -0.8886064851
 C          1.6400424739       -0.5384165231        0.0636188558
 C          0.3512263445       -0.9457237217        0.3703917683
 H         -0.2174606581       -0.4055867520        1.1189137928
 N          2.2091751110        0.5811503117        0.6987101360
 S          3.7000643374        0.3779552030        1.4477208840
 O          3.8850732920       -0.9833738908        1.8949527547
 O          3.7536206761        1.4028627790        2.4676206142
 C          4.8779354259        0.7681252608        0.1712990283
 C          5.8598760346       -0.1437809056       -0.1626918032
 C          6.7734515516        0.1881106750       -1.1512475540
 C          6.6893259936        1.4190497257       -1.7836727967
 C          5.6977935035        2.3242888754       -1.4351551538
 C          4.7822932849        1.9994550672       -0.4470551070
 H          3.9990869324        2.6744077402       -0.1443376702
 H          5.6351494622        3.2802721056       -1.9296775578
 H          7.4006515110        1.6750511536       -2.5529552558
 H          7.5449727414       -0.5139478649       -1.4237787064
 H          5.8821974815       -1.0907099951        0.3526349923
 H          1.5709860450        1.0583230489        1.3191924402
 H          3.3759429969       -0.9142692550       -1.1283273170
 H          2.3706105538       -2.8732368637       -2.2497953136
 H          0.0848339545       -3.5798603815       -1.7078916512
 H         -1.5935898234       -2.8588148608        1.1385570605
 C         -2.2712613645       -3.4341839904       -0.8074261514
 C         -2.0511899458       -4.9014909230       -0.5987636264
 C         -3.3858632708       -4.2929318722       -0.2929767591
 H         -4.2161818702       -4.5089080560       -0.9483339393
 H         -3.6688248142       -4.1682982584        0.7425666505
 H         -1.9683637856       -5.5395146021       -1.4656852253
 H         -1.4301558057       -5.2014100083        0.2319438172
 H         -2.3514113589       -3.0644287274       -1.8230430323
