  62
        -98.94514180
 C          1.5347309978        0.7397435469       -0.5329392284
 C          2.8297142203        1.3046260204       -0.5986876075
 C          3.9412977431        0.3471186862       -0.6294395116
 C          3.6849826790       -0.9738770557       -0.6154282117
 C          4.7108406147       -2.0736539293       -0.6677197053
 C          5.3161139250       -2.4280996369        0.6974686506
 C          6.2902686622       -1.3949515385        1.2649166538
 H          6.8001247850       -1.8643798835        2.1086317852
 H          7.0481737828       -1.1617131539        0.5163732827
 C          5.6267226544       -0.0982367381        1.7494668890
 H          4.5545582413       -0.2640965912        1.8779899476
 H          6.0279264675        0.1727544556        2.7287282179
 C          5.8343299167        1.1030758875        0.8270215907
 H          6.8952229303        1.3611463935        0.7943134583
 H          5.2941809138        1.9556409495        1.2469463855
 C          5.3385886285        0.8894394086       -0.6093278227
 H          6.0146180327        0.2235513680       -1.1452903840
 H          5.3267703704        1.8579835429       -1.1153979737
 H          5.8506803299       -3.3737799184        0.5816805045
 H          4.5027738053       -2.5906687718        1.4083882198
 H          4.1996233841       -2.9567626027       -1.0565796210
 H          5.5073851793       -1.8001396539       -1.3602048349
 O          2.4228556787       -1.4767194560       -0.5687860088
 C          1.3174337671       -0.6384494269       -0.5037981251
 O          0.2262405400       -1.2305767704       -0.4307114737
 O          3.0462539897        2.5463775815       -0.6281311900
 C          0.3278095997        1.6579485430       -0.4886028175
 C         -0.5050625567        1.3605299219        0.7329248298
 C          0.1223435678        1.2513763894        1.9718666226
 C         -0.6035344108        0.9507743437        3.1072939210
 C         -1.9699263329        0.7417651277        3.0326788197
 C         -2.6083890912        0.8665012480        1.8054380536
 C         -1.8782964486        1.1890659230        0.6689205306
 H         -2.4026944267        1.3052326216       -0.2635436576
 N         -3.9921710608        0.6818454995        1.7005866175
 S         -4.6942891166        0.1386410856        0.2884858828
 O         -4.7639756072        1.2108125716       -0.6732266495
 O         -5.9690951090       -0.3980919973        0.7168733578
 C         -3.6651693769       -1.1782312784       -0.3327579907
 C         -3.3552715671       -2.2294702920        0.5054510820
 C         -2.5732947367       -3.2636826288        0.0201189996
 C         -2.1196425447       -3.2320489048       -1.2884297975
 C         -2.4448538348       -2.1730320583       -2.1193170043
 C         -3.2236693814       -1.1340214124       -1.6385224769
 H         -3.4922851154       -0.2865190474       -2.2499126037
 H         -2.0845867791       -2.1478884190       -3.1358369153
 H         -1.5018874913       -4.0334934599       -1.6614440408
 H         -2.3117932935       -4.0874116324        0.6648307340
 H         -3.7249634694       -2.2301936717        1.5182494359
 H         -4.4463320225        0.3154115339        2.5232700118
 H         -2.5364757594        0.4906426588        3.9161509895
 H         -0.1014479513        0.8665835858        4.0594593243
 H          1.1923400087        1.3990600960        2.0297771759
 H          0.7325652537        2.6770067824       -0.3969762026
 C         -0.4515345214        1.5547003262       -1.7829137115
 C         -1.2632321622        2.7148222386       -2.2736755049
 C          0.0035759999        2.3345281005       -2.9782793451
 H         -0.0641322218        1.8731119806       -3.9520044947
 H          0.8679567535        2.9708333251       -2.8560284536
 H         -2.2083333193        2.5181316944       -2.7580547357
 H         -1.2608309807        3.6140205665       -1.6760717769
 H         -0.8338559303        0.5539281481       -1.9535528490
