  62
        -98.94129440
 C         -1.3202180685       -1.6055243743       -0.3157316447
 C         -2.5050902251       -1.4393140751        0.4438900424
 C         -3.3880603341       -0.3276467347        0.0591703765
 C         -3.0305788415        0.4780251372       -0.9581478157
 C         -3.7612582539        1.6454427166       -1.5859789371
 C         -4.8132577571        2.4216847252       -0.7950828387
 C         -4.3047708940        3.1104069221        0.4696947928
 H         -3.5974311196        3.8942728381        0.1869056048
 H         -5.1576238591        3.5954649848        0.9502448196
 C         -3.6182830547        2.2017311832        1.4878794428
 H         -2.6662774578        1.8465426054        1.0885998048
 H         -3.3917178112        2.8045882663        2.3714190785
 C         -4.4376939389        0.9953441926        1.9456186323
 H         -3.9221276339        0.5596767014        2.8053159826
 H         -5.4239999199        1.3232350552        2.2791258902
 C         -4.6143171413       -0.1233529454        0.8999128695
 H         -5.4817011911        0.0543820803        0.2678493768
 H         -4.7846241797       -1.0622230461        1.4341734355
 H         -5.1913361569        3.1987630989       -1.4653029589
 H         -5.6551111329        1.7794874889       -0.5530276801
 H         -2.9816919000        2.3359477854       -1.9202573600
 H         -4.2369858364        1.2548346707       -2.4926144974
 O         -1.8800549647        0.2803194397       -1.6603423756
 C         -0.9964731257       -0.7438297336       -1.3626792918
 O          0.0059138327       -0.7685727975       -2.1019853686
 O         -2.8193832832       -2.1970740881        1.3998654600
 C         -0.3726265875       -2.7245452914        0.0875717175
 C          0.8260826732       -2.0843955148        0.7414274869
 C          0.8171680818       -1.8352753971        2.1106172391
 C          1.8607041117       -1.1564056634        2.7129750949
 C          2.9240409604       -0.6902904283        1.9591870156
 C          2.9331747939       -0.9226356545        0.5907103824
 C          1.9049438902       -1.6369046323       -0.0066553640
 H          1.9222887973       -1.7985290870       -1.0725533259
 N          3.9810406834       -0.3977635703       -0.1979171258
 S          4.1344214702        1.2714284033       -0.1473665841
 O          4.8688298093        1.6297837856       -1.3397872080
 O          4.7441470826        1.6445346596        1.1048711844
 C          2.4703909549        1.9103117872       -0.2225017715
 C          1.8542275611        1.9986546914       -1.4541216614
 C          0.5512041615        2.4627789197       -1.5207803782
 C         -0.1133948973        2.8154386181       -0.3572188134
 C          0.5151565214        2.7123727528        0.8738228505
 C          1.8214401805        2.2572508055        0.9453905976
 H          2.3489016782        2.1743228772        1.8812832150
 H         -0.0098248076        2.9834542924        1.7760950274
 H         -1.1298410771        3.1736255370       -0.4091117545
 H          0.0560332147        2.5298885140       -2.4761344434
 H          2.3999872436        1.7142877332       -2.3393509288
 H          3.9190957888       -0.6922321312       -1.1630722745
 H          3.7343540755       -0.1353893917        2.4037712367
 H          1.8427583674       -0.9786499590        3.7775029620
 H         -0.0289729144       -2.1662335789        2.6959475856
 H         -0.9119094959       -3.3025177493        0.8493798869
 C         -0.0234775875       -3.6441884347       -1.0631959051
 C          0.6195256677       -4.9655565528       -0.7690320748
 C         -0.7993923804       -4.9124072342       -1.2477962533
 H         -1.0181800937       -5.2402426996       -2.2530552225
 H         -1.5862339219       -5.1257652348       -0.5392287050
 H          1.3775579238       -5.3331332976       -1.4436577044
 H          0.7962468183       -5.2129993634        0.2668061370
 H          0.2824133224       -3.1215287902       -1.9606050354
