  62
        -98.93217840
 C         -1.7522113370       -0.0544609831       -0.2604510144
 C         -2.8740146467        0.8061179925       -0.3100078427
 C         -4.1461462937        0.2729260188        0.2301603770
 C         -4.1679877451       -0.9645341953        0.7562223034
 C         -5.3389880614       -1.7170512462        1.3304527928
 C         -6.2807599190       -2.2656939592        0.2463700542
 C         -6.5970451810       -1.2896659563       -0.8837841518
 H         -5.6650393539       -0.9758928857       -1.3574008918
 H         -7.1773323539       -1.8297675944       -1.6366448370
 C         -7.3980506473       -0.0564468450       -0.4732443936
 H         -7.6254257227        0.5011056260       -1.3855357055
 H         -8.3464176684       -0.3748850975       -0.0345421603
 C         -6.7059646461        0.8958717947        0.5041387656
 H         -6.7376404971        0.5082267280        1.5188225204
 H         -7.2794552804        1.8275481548        0.5106613817
 C         -5.2760204374        1.2694728827        0.1262269960
 H         -4.9683623514        2.1275080660        0.7362679869
 H         -5.2624177166        1.6345921835       -0.9071209315
 H         -7.2081166434       -2.5857668067        0.7244106586
 H         -5.8084111246       -3.1456522313       -0.1970467332
 H         -4.9251330285       -2.5590222800        1.8897157160
 H         -5.8796424751       -1.0883377812        2.0316041992
 O         -3.0558421251       -1.7537660629        0.7967468100
 C         -1.8418012069       -1.3321675803        0.2975041881
 O         -0.9243821519       -2.1721209284        0.3989531889
 O         -2.8499705209        1.9729387748       -0.7785426367
 C         -0.3777828002        0.3254269495       -0.7836795745
 C          0.4439354218        1.0411320774        0.2571591418
 C         -0.0886766490        2.0601665289        1.0396676216
 C          0.7008109469        2.7130776642        1.9687039017
 C          2.0368625814        2.3837553263        2.1158327509
 C          2.5796545286        1.3695973284        1.3363425539
 C          1.7753180816        0.6930975394        0.4302010071
 H          2.1959914499       -0.1117120059       -0.1525932230
 N          3.9293818884        1.0094439277        1.4510359657
 S          4.8020948662        0.6557456416        0.0646020950
 O          6.1791463777        0.9142814045        0.4259121957
 O          4.2937654045        1.3798367193       -1.0760842085
 C          4.5828833403       -1.0953388918       -0.1616260922
 C          4.8959498757       -1.9340958495        0.8895773358
 C          4.7425992581       -3.3007574618        0.7230684587
 C          4.2835432483       -3.8028610097       -0.4853990531
 C          3.9772695562       -2.9477500977       -1.5324816292
 C          4.1285485779       -1.5794801794       -1.3720611861
 H          3.8956190701       -0.8794159368       -2.1594562539
 H          3.6181610591       -3.3394933106       -2.4706986801
 H          4.1620140546       -4.8669980534       -0.6126041820
 H          4.9786189997       -3.9703248084        1.5344040735
 H          5.2527315491       -1.5065995569        1.8117192121
 H          4.4647211766        1.5647740512        2.1024402852
 H          2.6556449387        2.9073795610        2.8287912296
 H          0.2754239368        3.4997540791        2.5737001892
 H         -1.1212676528        2.3432491596        0.9043850821
 H          0.1242084019       -0.6339605952       -0.9890070173
 C         -0.4251897685        1.0920174938       -2.0991849993
 C         -0.1525001089        2.5578584924       -2.2159402273
 C          0.8419115987        1.5710638604       -2.7454465171
 H          0.9441354222        1.4654660218       -3.8153719717
 H          1.7696666986        1.4557351764       -2.2027167372
 H         -0.7515254388        3.1251133874       -2.9118167487
 H          0.0986756436        3.1020245222       -1.3192184362
 H         -1.1850499125        0.6942759996       -2.7650680232
