  62
        -98.93916159
 C         -2.6665561461       -0.2957709086       -0.3404010732
 C         -2.2496802988       -1.0832246647        0.7614900822
 C         -1.7029681198       -2.4105356187        0.4306373322
 C         -1.6009622791       -2.7884315162       -0.8551145795
 C         -1.0387191713       -4.0978690730       -1.3277026584
 C          0.4654476378       -4.0027508079       -1.6133031228
 C          1.2776853094       -3.3746822770       -0.4801744901
 H          2.3295285655       -3.4197460082       -0.7737375178
 H          1.0215415931       -2.3155366417       -0.3963321398
 C          1.0999981228       -4.0520510383        0.8855129915
 H          2.0821838361       -4.1561585366        1.3514468654
 H          0.6935274554       -5.0561254708        0.7526996039
 C          0.2249247649       -3.2730780989        1.8695993567
 H          0.3655679536       -3.7044307781        2.8650697124
 H          0.5634145217       -2.2343271772        1.9122461356
 C         -1.2813556599       -3.2848266779        1.5781942452
 H         -1.6177658465       -4.3126475154        1.4211882359
 H         -1.7918099693       -2.8859897983        2.4601563482
 H          0.6106129883       -3.3946303729       -2.5091449281
 H          0.8394791098       -5.0084100221       -1.8168476588
 H         -1.2273148116       -4.8584852909       -0.5720579475
 H         -1.5555035817       -4.3765448529       -2.2480762868
 O         -1.9940192996       -1.9994937825       -1.8882398088
 C         -2.5086689738       -0.7375349463       -1.6566054911
 O         -2.8152785343       -0.1115191950       -2.6926041764
 H         -0.7197472626        0.9497994987        0.8497053903
 C         -0.8426034230        1.8336671654        0.2398619736
 C         -2.0652882544        2.0989101505       -0.3615874900
 C         -2.1864093308        3.2528532347       -1.1256154681
 C         -1.1106609579        4.1096111933       -1.2902939205
 C          0.1185241170        3.8127996889       -0.7285930509
 C          0.2480092471        2.6602732077        0.0344647059
 N          1.5289555947        2.2760439504        0.5293525958
 S          1.8721829820        0.6343289420        0.3996340665
 O          1.2446658813        0.1302541066       -0.7967068368
 O          1.5949887131       -0.0533325214        1.6439245456
 C          3.6365247585        0.7008267208        0.1508841052
 C          4.4981790846        0.1718022962        1.0908566635
 C          5.8647057604        0.2545155588        0.8701138783
 C          6.3425048554        0.8644074622       -0.2792355362
 C          5.4640775784        1.3909799801       -1.2151880630
 C          4.0980561011        1.3093573445       -1.0005606707
 H          3.3763862811        1.6968151299       -1.7011321988
 H          5.8388029006        1.8633266269       -2.1089852220
 H          7.4057795655        0.9287062495       -0.4484966599
 H          6.5491728092       -0.1561170167        1.5948883350
 H          4.0803365634       -0.2946182326        1.9685546863
 H          1.7313608766        2.6097634464        1.4609968026
 H          0.9736320214        4.4507098512       -0.8820364437
 H         -1.2245413454        5.0022587103       -1.8861083565
 H         -3.1264451867        3.4645405870       -1.6142276892
 C         -3.2042197260        1.1217105771       -0.2098391172
 H         -3.8743101517        1.2647250036       -1.0734953209
 C         -4.0258679604        1.3572999352        1.0486821564
 C         -3.5206710446        2.1439894340        2.2168194592
 C         -4.5871456119        2.7185608701        1.3367349163
 H         -5.5930472615        2.7885611193        1.7215261360
 H         -4.3070508697        3.5247370410        0.6761770706
 H         -2.5259140780        2.5580350722        2.1548095975
 H         -3.7828218682        1.7969873518        3.2043715479
 H         -4.6609767950        0.5088882618        1.2798374644
 O         -2.3342565306       -0.7262499580        1.9656788519
