  62
        -98.94676642
 C         -0.0614193038       -1.9798243133        0.5582620190
 C         -0.7280707347       -2.1227612912       -0.6824525524
 C         -2.1576995234       -1.7926612378       -0.6758849963
 C         -2.7508990707       -1.4046157017        0.4676951916
 C         -4.2158628051       -1.1086526712        0.6434093173
 C         -4.6182898022        0.3231788693        0.2683719257
 C         -4.5943466723        0.6396449569       -1.2270060324
 H         -5.1866876609       -0.1012899174       -1.7647619812
 H         -5.0852489561        1.6056079303       -1.3578814425
 C         -3.1865411582        0.7149236585       -1.8347866923
 H         -2.4473847595        0.8229103132       -1.0372220381
 H         -3.1067862725        1.6044514649       -2.4629556465
 C         -2.8102705383       -0.4864453697       -2.7027063536
 H         -3.4587058216       -0.5221987272       -3.5810346161
 H         -1.7816059920       -0.3523424400       -3.0477288573
 C         -2.8937080126       -1.8378102343       -1.9802563041
 H         -3.9349332751       -2.1196954887       -1.8255237832
 H         -2.4144387050       -2.5935924377       -2.6071643246
 H         -3.9553219937        1.0118352672        0.7927009204
 H         -5.6342665126        0.4830000297        0.6365859474
 H         -4.8010602690       -1.8202099109        0.0600665830
 H         -4.4386265251       -1.2621338356        1.7015946763
 O         -2.0690955421       -1.2641887698        1.6365982437
 C         -0.7085032044       -1.5200235994        1.7038456599
 O         -0.1994977136       -1.3063767392        2.8240533691
 H          1.1903497874        0.3235802105        0.3311928357
 C          1.9330908990       -0.0803074976       -0.3416622318
 C          2.1884351097       -1.4461557018       -0.3301378786
 C          3.1441388126       -1.9509151106       -1.2015330746
 C          3.8142752493       -1.1053983355       -2.0687322866
 C          3.5696985327        0.2550441727       -2.0637781532
 C          2.6233729211        0.7725158536       -1.1858463261
 N          2.3509741510        2.1485164704       -1.1444842968
 S          2.1154741247        2.9079911787        0.3306967176
 O          2.5674336943        4.2663033018        0.1105353837
 O          2.7576731679        2.1900607051        1.4054840769
 C          0.3503195223        2.9492435960        0.5555132738
 C         -0.3855614697        3.7400501127       -0.3061660827
 C         -1.7511376834        3.8566237777       -0.1101343161
 C         -2.3566496152        3.1858562249        0.9419430269
 C         -1.6081497347        2.3827273349        1.7886208787
 C         -0.2400763647        2.2632790616        1.5974386144
 H          0.3677361758        1.6493797480        2.2457203145
 H         -2.0734858404        1.8437383438        2.5997778078
 H         -3.4173628533        3.2956794571        1.1056359196
 H         -2.3394822816        4.4731576536       -0.7700483412
 H          0.1271785045        4.2610335151       -1.0973909550
 H          2.9220728218        2.7093561445       -1.7601161033
 H          4.1023935254        0.9144321103       -2.7322415203
 H          4.5462869139       -1.5111067328       -2.7506326120
 H          3.3598435984       -3.0065680217       -1.2088357805
 C          1.4192867630       -2.2967810637        0.6514689840
 H          1.7345587773       -2.0052861697        1.6648747398
 C          1.6460523049       -3.7844038327        0.4787740553
 C          2.8254874981       -4.4479024162        1.1219891858
 C          1.4465504119       -4.6869807617        1.6575701036
 H          0.9895374703       -5.6519771218        1.4977938050
 H          1.1720389911       -4.2240240599        2.5946181770
 H          3.3157354465       -5.2534044641        0.5963142418
 H          3.4932037831       -3.8277860906        1.7012193269
 H          1.3174290631       -4.1454191665       -0.4890155292
 O         -0.1641927306       -2.5154863015       -1.7364746024
