  62
        -98.95045715
 C         -1.7711075192       -1.2737880583       -0.2399096758
 C         -2.8536068910       -0.6210120946        0.3927192280
 C         -3.2566258626        0.6656719261       -0.1881524842
 C         -2.5952434177        1.1410496575       -1.2593157804
 C         -2.8873903671        2.4480799815       -1.9371942809
 C         -2.0290224931        3.5834619093       -1.3644709542
 C         -2.0459613547        3.6644405887        0.1619666032
 H         -1.5314681880        2.7895575795        0.5674480802
 H         -1.4474879850        4.5336628062        0.4459006656
 C         -3.4456785737        3.7837825228        0.7808796527
 H         -4.1559395892        4.1252268323        0.0264901230
 H         -3.4137679088        4.5437767686        1.5646149169
 C         -3.9705025140        2.5011132443        1.4289334324
 H         -4.8411119181        2.7597001686        2.0380718783
 H         -3.2082722523        2.0968072335        2.1005931575
 C         -4.4008606838        1.3903252648        0.4625293928
 H         -4.9423951150        0.6363334021        1.0416896009
 H         -5.0792591329        1.7988602259       -0.2893924261
 H         -2.3794948267        4.5276681644       -1.7868446375
 H         -0.9935228735        3.4296846585       -1.6774742303
 H         -3.9436531515        2.6831616500       -1.8192392378
 H         -2.6648396565        2.3390426416       -3.0003288271
 O         -1.5594723177        0.4864027977       -1.8403011801
 C         -1.1004115963       -0.7144761279       -1.3264112518
 O         -0.1131558731       -1.1861586882       -1.9244546787
 O         -3.4561009646       -1.0950110120        1.3955231016
 C         -1.2673298090       -2.5919965106        0.3194870965
 C          0.1907916052       -2.4682192239        0.6870074861
 C          1.1342811370       -3.4562103458        0.4341595353
 C          2.4634153277       -3.2604098262        0.7692448891
 C          2.8839191072       -2.0715376416        1.3369691460
 C          1.9449462253       -1.0824223180        1.6041970246
 C          0.6098842657       -1.2998897728        1.3102833130
 H         -0.1063938183       -0.5214105501        1.5289653763
 N          2.3139071790        0.1669718740        2.1490540952
 S          2.0924433282        1.4916928679        1.1405848833
 O          2.5917241012        2.6248369797        1.8905265496
 O          0.7199055451        1.5616152982        0.7156419282
 C          3.1851498541        1.1661985486       -0.2314683101
 C          4.4522192911        1.7181962381       -0.2039496152
 C          5.3432959363        1.4082238616       -1.2178303249
 C          4.9575469270        0.5444517246       -2.2323166286
 C          3.6845470913       -0.0036558350       -2.2424472274
 C          2.7842655442        0.3052909407       -1.2332571612
 H          1.7873713433       -0.1087291377       -1.2294714458
 H          3.3753690203       -0.6756100387       -3.0269971171
 H          5.6513123971        0.2973331854       -3.0203938988
 H          6.3328463224        1.8361153661       -1.2123128877
 H          4.7047297828        2.3856161367        0.6043456808
 H          3.2578377678        0.1874776221        2.5119471897
 H          3.9252542947       -1.9060807461        1.5691956028
 H          3.1848285191       -4.0366878168        0.5650302784
 H          0.8299516809       -4.3781276328       -0.0338200452
 H         -1.8460398558       -2.7618698970        1.2401108483
 C         -1.5489312340       -3.7215009178       -0.6500401665
 C         -1.8157037907       -5.1072933793       -0.1448035712
 C         -2.9340759917       -4.2892357631       -0.7146785890
 H         -3.3359352206       -4.5603732523       -1.6793330156
 H         -3.6679250388       -3.8781600902       -0.0367707933
 H         -1.4524346085       -5.9451309332       -0.7206116509
 H         -1.7972234767       -5.2625870649        0.9233229345
 H         -1.0100588796       -3.6090715860       -1.5842881640
