  62
        -98.93606563
 C          2.4888359923        0.1247100879       -0.5993258222
 C          2.1912473040        0.6461151928        0.6833817730
 C          1.7882595955        2.0602088850        0.7195728063
 C          1.7175571351        2.7580177133       -0.4276459848
 C          1.3204668034        4.2021177931       -0.5362380749
 C         -0.1840236567        4.3653476314       -0.7859851219
 C         -1.0645803044        3.5722610922        0.1796249833
 H         -2.1033344570        3.8191661258       -0.0535996940
 H         -0.9431965656        2.5033826433       -0.0125080421
 C         -0.7942670017        3.8476065735        1.6654686818
 H         -1.7525534096        3.9498463004        2.1787751399
 H         -0.2614803469        4.7929762475        1.7793974175
 C         -0.0233646886        2.7341788801        2.3781925632
 H         -0.4736308189        1.7697065013        2.1305792664
 H         -0.1231679429        2.8839819337        3.4568429572
 C          1.4761521735        2.6551335477        2.0635043081
 H          1.9292273894        3.6443469413        2.1638557035
 H          1.9371396207        1.9881152059        2.7978471482
 H         -0.4059624108        4.0295810054       -1.8019716303
 H         -0.4290835688        5.4273558710       -0.7163197685
 H          1.8665867313        4.6417157913       -1.3732352331
 H          1.6042103211        4.7167714572        0.3799742503
 O          1.9952105662        2.2166185833       -1.6435378761
 C          2.3694424933        0.8888304181       -1.7579996455
 O          2.5809306352        0.5126991888       -2.9315472368
 O          2.2745939836       -0.0228798210        1.7447218211
 C          2.9097772783       -1.3326370011       -0.7654654781
 C          1.9105679922       -2.1898493829       -0.0238445057
 C          2.1471034248       -3.1368142180        0.9635500744
 C          1.0938386340       -3.8106960477        1.5618353831
 C         -0.2166824061       -3.5487993431        1.2152857136
 C         -0.4693291341       -2.6095503836        0.2220334341
 C          0.5865123401       -1.9700155475       -0.4000236316
 H          0.3706081927       -1.2442176357       -1.1726531029
 N         -1.7841968653       -2.2941893612       -0.1734414008
 S         -2.0872574939       -0.6534100668       -0.4624211197
 O         -1.7537647797       -0.3535696995       -1.8339683194
 O         -1.4487184473        0.1527789695        0.5501487912
 C         -3.8591933332       -0.6074311108       -0.2651735392
 C         -4.4081699854       -0.0444886096        0.8707653215
 C         -5.7867711589       -0.0427980285        1.0183463506
 C         -6.5870520483       -0.6042440850        0.0350532885
 C         -6.0209347743       -1.1654629992       -1.1004024184
 C         -4.6440240699       -1.1682234585       -1.2554493162
 H         -4.1586393605       -1.5825303879       -2.1237334753
 H         -6.6462834102       -1.5986843814       -1.8641644186
 H         -7.6591186617       -0.6024846398        0.1526983897
 H         -6.2292332571        0.3956566872        1.8981938433
 H         -3.7451179880        0.3834086059        1.6055600446
 H         -2.4763199635       -2.6820437733        0.4544967809
 H         -1.0333150115       -4.0554415248        1.7068288907
 H          1.3040756813       -4.5379089199        2.3317170822
 H          3.1429603730       -3.3492263541        1.3063504269
 H          2.7678296959       -1.5503856716       -1.8385554262
 C          4.4083706032       -1.4269749638       -0.5210525389
 C          5.0605544366       -1.5974394835        0.8146440910
 C          5.1721760839       -2.6811206886       -0.2180789813
 H          6.1263990139       -2.8100819093       -0.7076232666
 H          4.6287693527       -3.6019105412       -0.0867990762
 H          5.9366674533       -1.0002987982        1.0233413399
 H          4.4210773201       -1.7279645775        1.6721670514
 H          4.9054309232       -0.7337883027       -1.1977170830
