  62
        -98.94357507
 C         -1.7672973903       -1.3739747300        0.3638028336
 C         -1.8484227218       -0.1322204729        1.0484975532
 C         -3.1123102724        0.6008482601        0.9256758183
 C         -4.1257374541        0.0630196528        0.2232101508
 C         -5.5039273249        0.6457930474        0.0630565068
 C         -5.6261459748        1.6796546569       -1.0642809136
 C         -4.9596832947        3.0263031580       -0.7819977878
 H         -5.3014534597        3.7214320405       -1.5514144820
 H         -5.3072555248        3.4078033122        0.1786370058
 C         -3.4256320333        2.9836060174       -0.7989561748
 H         -3.0924970116        2.0706608304       -1.2980540581
 H         -3.0444027977        3.8240054584       -1.3831132454
 C         -2.7710266218        3.0582744614        0.5803105870
 H         -1.6906935729        2.9746103710        0.4419292220
 H         -2.9820631020        4.0287242285        1.0349867176
 C         -3.2112832306        1.9576823016        1.5548222469
 H         -4.2286444139        2.1444694283        1.8986788969
 H         -2.5425330000        1.9727296644        2.4191459906
 H         -5.2096275064        1.2507680038       -1.9785938409
 H         -6.6915567423        1.8521877903       -1.2335700681
 H         -6.1684146121       -0.1907551248       -0.1641931963
 H         -5.8210455600        1.0945230565        1.0050819332
 O         -4.0113827366       -1.1267963049       -0.4196230782
 C         -2.8272054450       -1.8537809794       -0.4066135251
 O         -2.8756508021       -2.8810019956       -1.1114583162
 O         -0.9070534089        0.3338618369        1.7440965874
 C         -0.4601322209       -2.1325464692        0.5061568989
 C          0.5131488861       -1.7894063976       -0.5967806669
 C          0.1522762193       -1.8718867942       -1.9371811252
 C          1.0680432165       -1.5607261700       -2.9255382708
 C          2.3515207889       -1.1585406374       -2.5991910138
 C          2.7257653741       -1.0831638131       -1.2622471904
 C          1.8048263703       -1.4019460508       -0.2733151399
 H          2.1102545107       -1.3491516702        0.7597874726
 N          4.0318396373       -0.7181299512       -0.9101926911
 S          4.3796053223        0.1997559996        0.4417233914
 O          5.7713894234        0.5544887031        0.2728046467
 O          4.0513880687       -0.5343911557        1.6368800963
 C          3.3721777121        1.6631880584        0.2964862224
 C          3.8356512105        2.6847020620       -0.5115876145
 C          3.0626009511        3.8226950567       -0.6682822213
 C          1.8405942455        3.9212993020       -0.0186840838
 C          1.3926361953        2.8895453245        0.7901025652
 C          2.1600022277        1.7464616365        0.9492632831
 H          1.8148426083        0.9365269808        1.5705510612
 H          0.4452492303        2.9491556543        1.3021296738
 H          1.2364721289        4.8068693416       -0.1393667851
 H          3.4126414028        4.6283320859       -1.2934669706
 H          4.7984707889        2.5762845877       -0.9841794104
 H          4.6242501855       -0.4643436078       -1.6867859541
 H          3.0627005646       -0.9145181331       -3.3734843090
 H          0.7779712151       -1.6280692151       -3.9632868980
 H         -0.8478348720       -2.1868781782       -2.1942209566
 H         -0.0213175391       -1.7783179580        1.4498301728
 C         -0.6223814688       -3.6374977476        0.5978443756
 C          0.4579685195       -4.4446704965        1.2501452779
 C         -0.8654646421       -4.2720125546        1.9325248868
 H         -1.5356334444       -5.1167420788        1.9858024767
 H         -0.9129972855       -3.6227684370        2.7949204180
 H          0.6997193574       -5.4107559601        0.8343740949
 H          1.3096598828       -3.9147519754        1.6506369483
 H         -1.1268285678       -4.0684697187       -0.2568989666
