  62
        -98.93592480
 C          2.3322650506        0.6044214904        0.0346896500
 C          3.4289676005        0.6175239503        0.9279930702
 C          4.4701197206       -0.3927837995        0.6891430401
 C          4.3156345408       -1.2645262792       -0.3243239702
 C          5.3200739810       -2.3010676990       -0.7411858604
 C          6.4591835611       -1.6374032786       -1.5413268400
 C          7.8251671210       -1.6899442487       -0.8566046399
 H          8.2322179411       -2.6986224186       -0.9536757501
 H          8.4888906910       -1.0134357185       -1.3993074796
 C          7.8427285307       -1.3194525291        0.6296036603
 H          7.5056365007       -2.1699374393        1.2240134200
 H          8.8860239607       -1.1445438791        0.9009834904
 C          7.0184408705       -0.0873281993        1.0246761105
 H          7.5783123004        0.4677903605        1.7801476907
 H          6.8898634906        0.5795208609        0.1717836007
 C          5.6402110405       -0.4067889996        1.6336369102
 H          5.6830293905       -1.3702138498        2.1492209399
 H          5.4039683803        0.3554443901        2.3821297704
 H          6.5472580712       -2.1188840284       -2.5163969302
 H          6.1845475710       -0.5972184586       -1.7288845598
 H          5.7134680610       -2.8068034592        0.1377637095
 H          4.7963343412       -3.0304564589       -1.3592911607
 O          3.2396681710       -1.2531105391       -1.1535010804
 C          2.2228941508       -0.3223068193       -1.0014351902
 O          1.3028668310       -0.4243341191       -1.8341688304
 O          3.5291115202        1.4331346901        1.8845620304
 C          1.2225951204        1.6236967103        0.2186247502
 C         -0.0887514595        0.9166530201        0.4563000798
 C         -0.1632785395       -0.0254887902        1.4796398195
 C         -1.3391212195       -0.7037190304        1.7324524092
 C         -2.4700945194       -0.4584563804        0.9724924891
 C         -2.4128793094        0.4894934099       -0.0383908806
 C         -1.2284773394        1.1739720601       -0.2874339003
 H         -1.2014804594        1.9047635304       -1.0806529301
 N         -3.5518886393        0.7413629400       -0.8178926007
 S         -5.0410800194        0.9291881996       -0.0731365109
 O         -5.8212599994        1.7293988898       -0.9916333608
 O         -4.9009611697        1.4453661393        1.2684949993
 C         -5.7113625793       -0.7197742304       -0.0291607214
 C         -6.0960411094       -1.2770307708        1.1744294783
 C         -6.6217595892       -2.5597179309        1.1816623179
 C         -6.7547756590       -3.2577008106       -0.0087778423
 C         -6.3670904489       -2.6824424802       -1.2098313721
 C         -5.8405164290       -1.4009259001       -1.2235916817
 H         -5.5307131189       -0.9182113398       -2.1354525315
 H         -6.4723372187       -3.2281127199       -2.1337435723
 H         -7.1633287989       -4.2558788406       -0.0008096226
 H         -6.9242000693       -3.0087177712        2.1141006077
 H         -5.9722760396       -0.6983158911        2.0761675585
 H         -3.4123833593        1.4260423402       -1.5461009905
 H         -3.3889261394       -0.9890370105        1.1602775688
 H         -1.3773218895       -1.4346274407        2.5260525690
 H          0.7203246204       -0.2207613603        2.0722062596
 H          1.4817300803        2.1761771200        1.1339773204
 C          1.1996495905        2.5936745206       -0.9436281096
 C          0.6500682803        3.9763153605       -0.7616061792
 C          2.1256634004        3.7711919207       -0.9229453391
 H          2.5917523104        4.0772383310       -1.8475294289
 H          2.7579109402        3.8896214505       -0.0552277990
 H          0.1043151804        4.4278029507       -1.5767578392
 H          0.2781577001        4.2414002902        0.2167036608
 H          1.0425444207        2.0996206708       -1.8961943097
