  62
        -98.93912436
 C          2.5498721067        0.9004446363        0.2303308498
 C          3.2056150521       -0.0832421174        1.0130637050
 C          3.5500468829       -1.3372115354        0.3309977521
 C          3.2014436941       -1.4989946998       -0.9582475819
 C          3.4323441196       -2.7468403849       -1.7593067767
 C          2.2304427942       -3.6970341009       -1.6637598245
 C          1.7566555260       -3.9540207595       -0.2331815294
 H          1.3492367841       -3.0262709272        0.1765733949
 H          0.9284435582       -4.6638630659       -0.2895534197
 C          2.8394181169       -4.4989567151        0.7090609864
 H          3.6655552328       -4.9065900692        0.1255828147
 H          2.4152032352       -5.3206125413        1.2897666540
 C          3.3815259348       -3.4781365209        1.7112136028
 H          3.9682201176       -4.0158060213        2.4606270416
 H          2.5483775489       -2.9978689813        2.2307907113
 C          4.2811794723       -2.3816646900        1.1272058526
 H          4.7429592028       -1.8509207037        1.9649103457
 H          5.0730766771       -2.8358841582        0.5284474091
 H          1.3978553716       -3.2621783234       -2.2226589639
 H          2.5003333545       -4.6436253507       -2.1357352648
 H          3.5768437885       -2.4633486491       -2.8031909043
 H          4.3313272436       -3.2431949170       -1.3986016361
 O          2.5462395578       -0.5478462854       -1.6702156203
 C          2.1865949970        0.6661240600       -1.0974810238
 O          1.5663831471        1.4209880199       -1.8692996562
 O          3.4820104921        0.0780884524        2.2322348130
 C          2.1507889635        2.1952201377        0.9179089054
 C          0.7044142259        2.4990045310        0.6163209290
 C          0.2560453829        3.6869153700        0.0560094702
 C         -1.0866315620        3.8637466314       -0.2331181625
 C         -2.0078064583        2.8660233735        0.0255327797
 C         -1.5695246881        1.6757886651        0.5888327673
 C         -0.2296722319        1.5076318878        0.8925376073
 H          0.1081421742        0.5710703426        1.3228484836
 N         -2.5038432282        0.6391020925        0.8355080621
 S         -3.0427935010       -0.1923532509       -0.5384025087
 O         -2.2483260750       -1.3932630880       -0.7050844206
 O         -3.1019717747        0.7131459292       -1.6555876880
 C         -4.6932349950       -0.6360243665       -0.0318698473
 C         -5.6886550079        0.3156638101       -0.1376170355
 C         -6.9676770373       -0.0008347219        0.2905871684
 C         -7.2279951050       -1.2570260782        0.8179543020
 C         -6.2186103697       -2.2022129075        0.9172690889
 C         -4.9368370253       -1.8906433036        0.4910236302
 H         -4.1238586306       -2.5969165650        0.5415514571
 H         -6.4239100132       -3.1790552409        1.3248107461
 H         -8.2241416793       -1.5015243544        1.1514297710
 H         -7.7553298311        0.7311206646        0.2126014940
 H         -5.4413820120        1.2747353425       -0.5617450391
 H         -2.1226179983       -0.0553510499        1.4657277937
 H         -3.0492850995        2.9843567603       -0.2232171456
 H         -1.4170970940        4.7899463547       -0.6783541900
 H          0.9614054390        4.4653730011       -0.1842917540
 H          2.2313088374        1.9654911320        1.9942906185
 C          3.0876285523        3.3646958380        0.6582209728
 C          4.5209490127        3.1380505334        0.2833545630
 C          3.5681944844        3.7184782888       -0.7161069532
 H          3.6680169768        4.7637620759       -0.9699460504
 H          3.2362564714        3.1000743467       -1.5350797812
 H          5.2718116140        3.7821587535        0.7156977237
 H          4.8472800307        2.1173512799        0.1449545046
 H          2.8961055305        4.1926531438        1.3338701066
