  62
        -98.93549750
 C          2.6532898392        1.0795727005        0.7020419201
 C          2.7088491295       -0.2017120995        1.3090130101
 C          3.9190735397       -0.9903199292        1.0599966501
 C          4.9034388696       -0.4737082990        0.3024163601
 C          6.2158231297       -1.1356772687       -0.0194092899
 C          6.1517676200       -2.1049059087       -1.2075337199
 C          5.4236555903       -3.4213232389       -0.9334000099
 H          5.8343380804       -3.8823719688       -0.0346482499
 H          5.6405244004       -4.0881087988       -1.7702729399
 C          3.9008062902       -3.2851835792       -0.7941123099
 H          3.4091428204       -4.0656784793       -1.3794439599
 H          3.5794051700       -2.3270980693       -1.2098908999
 C          3.3808039803       -3.4001076594        0.6390303901
 H          3.5764779805       -4.4049622493        1.0200707100
 H          2.2976597602       -3.2513962596        0.6215916800
 C          3.9846956000       -2.3811797092        1.6144633401
 H          5.0147109701       -2.6497015390        1.8485088501
 H          3.3982735900       -2.3998488394        2.5363280601
 H          7.1798910200       -2.3361820484       -1.4953694999
 H          5.6773774199       -1.5951242688       -2.0492925999
 H          6.5860172998       -1.6615612886        0.8610720801
 H          6.9152766295       -0.3342057485       -0.2665795899
 O          4.8185500493        0.7599888810       -0.2572507699
 C          3.6878562691        1.5573759407       -0.1037840799
 O          3.7553179288        2.6353776507       -0.7204350199
 O          1.7878114296       -0.6572924998        2.0401761001
 C          1.3955568990        1.8902078402        0.9574830701
 C          0.3469537291        1.5812565999       -0.0810216799
 C          0.6369339191        1.6466164600       -1.4401830099
 C         -0.3362573308        1.3498812498       -2.3767415099
 C         -1.6123802008        0.9850591795       -1.9832224099
 C         -1.9094355708        0.9044317894       -0.6294790400
 C         -0.9283607108        1.2024327196        0.3097373101
 H         -1.1564638508        1.1238654395        1.3643135901
 N         -3.2086867207        0.5610131291       -0.2065833900
 S         -3.9757591804       -0.7600687411       -0.9300514500
 O         -3.1783246801       -1.9559715009       -0.7650260500
 O         -4.3163602504       -0.4098866212       -2.2854333600
 C         -5.4539587304       -0.8478286515        0.0597708200
 C         -6.4700003906        0.0528860783       -0.1978990700
 C         -7.6140055406        0.0121830880        0.5827193600
 C         -7.7223237304       -0.9229913920        1.6015197000
 C         -6.6947855901       -1.8212879618        1.8467079800
 C         -5.5464741101       -1.7847024315        1.0709372000
 H         -4.7255776300       -2.4676361513        1.2217885400
 H         -6.7829011500       -2.5487213518        2.6375885499
 H         -8.6142251004       -0.9537578023        2.2072160399
 H         -8.4160802907        0.7074797278        0.3946526000
 H         -6.3451523507        0.7552537383       -1.0051870000
 H         -3.2535975107        0.4601416090        0.7994303500
 H         -2.3721742807        0.7460465493       -2.7088314000
 H         -0.1001116908        1.4039241399       -3.4292366799
 H          1.6308176490        1.9320184802       -1.7518564999
 H          1.0181107891        1.5167637201        1.9231412901
 C          1.6513285286        3.3814157402        1.1211859101
 C          1.2241727584        4.4125566301        0.1248127201
 C          0.5105643784        4.3035759999        1.4366739101
 H          0.6579276782        5.0764444500        2.1755245501
 H         -0.4836180115        3.8823405197        1.4266814601
 H          1.8876495382        5.2469292603       -0.0429238198
 H          0.7101218585        4.0831594300       -0.7642056399
 H          2.5881176286        3.5736780504        1.6341350701
