  62
        -98.94496815
 C          1.0852790485        1.3256372605        0.1831397803
 C          1.3913859893        0.0411650508        0.6959543205
 C          2.4147753195       -0.7170590788       -0.0356171195
 C          2.9482694690       -0.1907327988       -1.1531194498
 C          4.0272115592       -0.8342466584       -1.9743322098
 C          5.4207650391       -0.3915981776       -1.5067723902
 C          5.6315486094       -0.5116304171        0.0024989698
 H          6.6586472393       -0.2057215765        0.2132786595
 H          4.9747002991        0.1976095826        0.5112803698
 C          5.3903891103       -1.9189215071        0.5660818602
 H          5.4194639405       -2.6512200873       -0.2414244197
 H          6.2018049805       -2.1638243166        1.2547465901
 C          4.0826909305       -2.0731068677        1.3449351804
 H          4.1164071411       -3.0267394075        1.8783514507
 H          4.0089455802       -1.2816356475        2.0949421403
 C          2.7983502903       -2.0650218985        0.5059884507
 H          2.8832298905       -2.7928219186       -0.3030674992
 H          1.9735297606       -2.3650714788        1.1576196409
 H          5.5661843684        0.6532243024       -1.7909924604
 H          6.1673780093       -0.9923467673       -2.0294144202
 H          3.9354783198       -1.9160715184       -1.9024239796
 H          3.8914807088       -0.5342158287       -3.0147222199
 O          2.5900585583        1.0222252909       -1.6448135799
 C          1.6559485680        1.8140404806       -0.9926229199
 O          1.4319903073        2.9022593403       -1.5547361201
 H         -1.5254485109        0.1228966092        0.2726756211
 C         -1.8734102014        1.0277958689       -0.2050468591
 C         -1.1923728120        2.2185811193        0.0211859105
 C         -1.6461625928        3.3753090189       -0.5975913196
 C         -2.7508741029        3.3316240681       -1.4306559594
 C         -3.4312880123        2.1474700277       -1.6459482590
 C         -2.9885676516        0.9845532081       -1.0246074689
 N         -3.6425356910       -0.2405797323       -1.2276577885
 S         -3.8647860102       -1.2711893721        0.0730698318
 O         -4.9629492398       -2.1256983628       -0.3307984878
 O         -4.0612571603       -0.5372478520        1.3018729817
 C         -2.3882807796       -2.2593568213        0.1585958717
 C         -1.8333602696       -2.7331508113       -1.0134172483
 C         -0.7269253592       -3.5632667407       -0.9394245183
 C         -0.2051536287       -3.9127307801        0.2967168917
 C         -0.7723830688       -3.4258719402        1.4634902617
 C         -1.8748266292       -2.5900478808        1.3962021617
 H         -2.3374192893       -2.1783080908        2.2790663417
 H         -0.3584059785       -3.6858477998        2.4245545717
 H          0.6512292016       -4.5663560597        0.3515086517
 H         -0.2755729591       -3.9365429407       -1.8447675083
 H         -2.2678138000       -2.4435973317       -1.9560006582
 H         -4.4675454811       -0.1915948929       -1.8079802783
 H         -4.2962794124        2.1181212271       -2.2912783889
 H         -3.0905216435        4.2351640178       -1.9140997696
 H         -1.1275298832        4.3062989892       -0.4406379900
 C          0.0337349282        2.1583843901        0.8978568303
 H         -0.2285221113        1.5862181502        1.7995428405
 C          0.5664583575        3.5110547605        1.3158715599
 C         -0.1482169727        4.2877519603        2.3798571299
 C          1.1827379777        3.6648415311        2.6727116697
 H          2.0424159774        4.3095224116        2.7780473794
 H          1.2099126083        2.7933992213        3.3106405699
 H         -0.2032988132        5.3616807703        2.2871015696
 H         -1.0268239123        3.8382769300        2.8179887501
 H          1.0192271271        4.0606392805        0.4993815797
 O          0.8357807397       -0.4467411693        1.7165817407
