  62
        -98.93257524
 C         -1.6069316730       -1.1212344902        0.1239092745
 C         -2.1015828647        0.1910020460       -0.0602804810
 C         -3.5729406617        0.3446425790       -0.0809452797
 C         -4.3516691620       -0.7311781982        0.1262931362
 C         -5.8566280528       -0.8255261338        0.1426825717
 C         -6.6109877040        0.2835036185        0.8919552513
 C         -7.3719111360        1.2344549339       -0.0335959288
 H         -7.8208211096        0.6499429220       -0.8394075629
 H         -8.1879045584        1.6923755137        0.5299565397
 C         -6.5360781424        2.3633757676       -0.6344438443
 H         -7.1548375560        2.8742490418       -1.3759831993
 H         -6.2967115395        3.0905109024        0.1446022006
 C         -5.2307567219        1.9267249759       -1.3026861912
 H         -4.9446664743        2.7026361382       -2.0162093656
 H         -5.3815541317        1.0111729003       -1.8737229466
 C         -4.0660105180        1.7461707794       -0.3173359579
 H         -3.1886599700        2.2906615359       -0.6810462171
 H         -4.3181938422        2.1985415044        0.6461709462
 H         -7.3367275895       -0.1954103765        1.5512718494
 H         -5.9205821452        0.8405892305        1.5233420211
 H         -6.2110123362       -0.8820588811       -0.8896542609
 H         -6.0731843847       -1.7943173721        0.5987083690
 O         -3.8280136501       -1.9716889320        0.3448684172
 C         -2.4652990763       -2.1994861732        0.3514929672
 O         -2.1451107910       -3.3828226101        0.5787960415
 H          1.7327267537        0.4722336553       -0.6417278866
 C          1.5535819389        0.4595309513        0.4195831302
 C          0.6242012616       -0.4092415239        0.9677714681
 C          0.3744584748       -0.3435343423        2.3364356716
 C          1.0317604800        0.5747849237        3.1312368088
 C          1.9710511345        1.4311966430        2.5832187398
 C          2.2257030030        1.3748262613        1.2187554024
 N          3.1701277191        2.2276632516        0.6329372812
 S          4.0815123630        1.7166718616       -0.6651575132
 O          5.2798033510        2.5273263992       -0.6024040394
 O          3.3307799639        1.8095284628       -1.8915872247
 C          4.4863793666        0.0106510470       -0.3275055814
 C          5.0704739786       -0.3048059072        0.8833365209
 C          5.3832921099       -1.6271463821        1.1527010605
 C          5.1127357884       -2.6073980918        0.2102037577
 C          4.5351089805       -2.2740501000       -1.0048093475
 C          4.2170032019       -0.9529450015       -1.2775555899
 H          3.7605552658       -0.6506163734       -2.2067993994
 H          4.3274905966       -3.0371960814       -1.7381901512
 H          5.3538618916       -3.6370240695        0.4223376540
 H          5.8349065616       -1.8898494073        2.0956784683
 H          5.2766316700        0.4791215819        1.5934658708
 H          3.6940899854        2.8042101810        1.2735072084
 H          2.4891659988        2.1476202266        3.2022926507
 H          0.8195208119        0.6204330854        4.1888108402
 H         -0.3560655781       -1.0163676894        2.7652255155
 C         -0.1195935952       -1.4303381210        0.1440487026
 H         -0.0416665679       -2.3996643641        0.6638333271
 C          0.4926216396       -1.6292886374       -1.2343475563
 C         -0.3067939890       -2.1981158905       -2.3670224340
 C          0.1329142334       -0.7665519263       -2.4046186289
 H          0.9155615540       -0.4795411404       -3.0925651610
 H         -0.6048498750        0.0049359428       -2.2496274529
 H          0.1720051157       -2.9031739496       -3.0295832382
 H         -1.3514041035       -2.4077001461       -2.1875947889
 H          1.5279068763       -1.9504656779       -1.1676725296
 O         -1.3679069754        1.2028144777       -0.2065861675
