  62
        -98.94087867
 C          1.8418806829        0.7202552271        0.5514249662
 C          2.3094498929       -0.0262447776       -0.5588014961
 C          3.4467650843       -0.9191011204       -0.2894159305
 C          3.9229427478       -1.0474843841        0.9612043842
 C          5.0647890696       -1.9275719595        1.3913563848
 C          6.4480949156       -1.2931922024        1.1915034899
 C          6.9178821244       -1.2001872496       -0.2608600233
 H          7.9784964461       -0.9420444556       -0.2378373554
 H          6.8317455015       -2.1795976835       -0.7325982918
 C          6.1740526242       -0.1540241649       -1.1028680654
 H          5.6533880020        0.5426775917       -0.4417667674
 H          6.8957311220        0.4306184055       -1.6776708027
 C          5.1699611588       -0.7375748279       -2.0971810942
 H          5.6984575898       -1.3330668502       -2.8448414280
 H          4.6785023636        0.0906648878       -2.6141527536
 C          4.0819761811       -1.6104879646       -1.4576794559
 H          4.5001320028       -2.5696089174       -1.1526134976
 H          3.3016051584       -1.7892146723       -2.2017489676
 H          7.1676655760       -1.9005770271        1.7453258496
 H          6.4429979322       -0.2958591142        1.6376039095
 H          4.9247619196       -2.1203719832        2.4573222575
 H          5.0177173727       -2.8773948403        0.8578059032
 O          3.3827564667       -0.3836362563        2.0183169249
 C          2.3484365085        0.5211364648        1.8380646690
 O          1.9582517472        1.0649141978        2.8912777902
 O          1.8180349789        0.0379056057       -1.7138416982
 C          0.7082693046        1.7228075749        0.4186655905
 C         -0.4253010665        1.1171226179       -0.3724822373
 C         -0.9350689147        1.6657841353       -1.5409607249
 C         -1.9762710453        1.0450522006       -2.2098004407
 C         -2.5345112363       -0.1240488020       -1.7284358221
 C         -2.0392727949       -0.6752736055       -0.5528729440
 C         -1.0016423503       -0.0487733098        0.1189084702
 H         -0.6117530269       -0.4825372825        1.0322963130
 N         -2.6071958589       -1.8575494230       -0.0482728949
 S         -4.2751276490       -1.9849273311       -0.0309987389
 O         -4.5734696629       -2.8927224201        1.0547553925
 O         -4.7464464780       -2.3866964294       -1.3329378864
 C         -4.8657425264       -0.3436432166        0.3446412767
 C         -4.4983990236        0.2172078804        1.5518844908
 C         -4.9149055406        1.5048354493        1.8473746623
 C         -5.6872093252        2.2067980056        0.9342827915
 C         -6.0525462815        1.6277645370       -0.2708172952
 C         -5.6377222871        0.3402935260       -0.5720281439
 H         -5.8976425798       -0.1471120782       -1.4974603826
 H         -6.6549167744        2.1751195459       -0.9776430860
 H         -6.0060677775        3.2107681129        1.1658770484
 H         -4.6321519518        1.9560618680        2.7849946240
 H         -3.9013991221       -0.3570045310        2.2425126209
 H         -2.2037874480       -2.1711753069        0.8216366330
 H         -3.3311089058       -0.6290818835       -2.2502179977
 H         -2.3537493433        1.4746027835       -3.1250735401
 H         -0.4989866717        2.5637761656       -1.9457774535
 H          0.3481432270        1.8785972792        1.4491629204
 C          1.1451480539        3.0869302201       -0.0949825923
 C          2.5378061107        3.5888201621        0.1411943441
 C          2.0894710245        3.2483586755       -1.2466281377
 H          1.9172100698        4.0582593748       -1.9404779347
 H          2.4721987087        2.3527145824       -1.7088717151
 H          2.6717121481        4.6280740104        0.4015656873
 H          3.2329257507        2.9239736187        0.6338400173
 H          0.3520754270        3.8231209577       -0.0089716514
