  62
        -98.93700214
 C          2.6370144582        0.2577994748       -0.1932715659
 C          2.0232915430        0.9767789882        0.8595386052
 C          1.3848343569        2.2643991236        0.5090542651
 C          1.4868784585        2.7252404868       -0.7498469382
 C          0.9280065878        3.9928640163       -1.3431189844
 C         -0.5775876941        3.9089763262       -1.6275539401
 C         -1.4136409501        3.3412419527       -0.4840673967
 H         -2.4502040772        3.2861782604       -0.8294640737
 H         -1.0965203096        2.3165087541       -0.2786483381
 C         -1.3952675091        4.1572433955        0.8067701958
 H         -2.1289853253        3.7038087969        1.4782366987
 H         -1.7221587676        5.1772012374        0.5911284279
 C         -0.0576962607        4.2160406283        1.5501998970
 H         -0.2674327893        4.5602029051        2.5671126051
 H          0.6139724998        4.9480133351        1.1085905749
 C          0.6491232230        2.8709549451        1.6788755843
 H          1.3860579207        2.9322118508        2.4885917691
 H         -0.0743059509        2.1114244122        2.0026856133
 H         -0.9347473225        4.9089043856       -1.8825215305
 H         -0.7237597294        3.2618390507       -2.4959542453
 H          1.1499774133        4.8387420506       -0.6990470005
 H          1.4519296141        4.1471024210       -2.2894485153
 O          2.1598698806        2.0348912283       -1.7168480602
 C          2.6869451312        0.7827884722       -1.4858298604
 O          3.1991709954        0.2479556022       -2.4927064087
 O          1.9844576342        0.5848053216        2.0574191437
 C          3.1721168712       -1.1577988285       -0.0532055342
 C          2.0498704276       -2.1506111746       -0.2648167901
 C          2.2513281466       -3.3245479617       -0.9824557183
 C          1.2026071689       -4.1969125635       -1.2136953963
 C         -0.0739266994       -3.9005565860       -0.7690064984
 C         -0.2831483989       -2.7327865576       -0.0457967374
 C          0.7820428466       -1.8895000679        0.2292992614
 H          0.5943107074       -1.0001979500        0.8088199145
 N         -1.5586558813       -2.3584633246        0.4104783276
 S         -1.9280922702       -0.7075480726        0.2737262846
 O         -1.3437300557       -0.1764000538       -0.9363515583
 O         -1.5878274811       -0.0477673724        1.5079270518
 C         -3.7041939903       -0.7833437624        0.1228177895
 C         -4.4610268405       -0.9369944389        1.2692895820
 C         -5.8386932471       -1.0335302197        1.1545556826
 C         -6.4333391397       -0.9760255431       -0.0973327685
 C         -5.6611249123       -0.8188004920       -1.2384405627
 C         -4.2822922680       -0.7236765250       -1.1308058750
 H         -3.6408939777       -0.5932282360       -1.9878216784
 H         -6.1259536169       -0.7700852404       -2.2099339008
 H         -7.5057341835       -1.0507486252       -0.1839499294
 H         -6.4421556076       -1.1526020804        2.0398367464
 H         -3.9539418519       -0.9664491720        2.2196520385
 H         -2.2979261422       -2.9364196863        0.0332249065
 H         -0.8995329191       -4.5620044899       -0.9834679376
 H          1.3741689659       -5.1042864857       -1.7725967780
 H          3.2322561328       -3.5403923524       -1.3787621945
 H          3.8905880036       -1.2919315451       -0.8747777631
 C          3.8852174353       -1.4355233144        1.2555252554
 C          4.9463648902       -2.4919056835        1.3053827525
 C          5.3233798937       -1.0450666121        1.4070130618
 H          5.6514498482       -0.6569987968        2.3592520349
 H          5.8049427798       -0.5822565535        0.5576161212
 H          5.0170424198       -3.1051030908        2.1904286933
 H          5.1848839517       -3.0106777648        0.3895385707
 H          3.2452001835       -1.3194191836        2.1202884063
