  62
        -98.93320676
 C          1.8437943375        1.0418684279       -0.5187948338
 C          2.6165390323        0.8485765871        0.6547379051
 C          3.6981845812       -0.1483997558        0.6034401729
 C          3.8987473055       -0.8330042977       -0.5376428842
 C          4.8704735141       -1.9430896345       -0.8816488719
 C          6.0264582846       -2.2831267076        0.0549451160
 C          7.1158211819       -1.2137875238        0.1348371840
 H          7.6521069861       -1.1952110481       -0.8172828106
 H          7.8263683013       -1.5054600956        0.9111854703
 C          6.6264713554        0.2048702400        0.4145311178
 H          5.9750699655        0.5345299364       -0.3973763843
 H          7.4981981665        0.8648277282        0.4167829947
 C          5.8975782078        0.3942672404        1.7430616712
 H          5.7407015910        1.4671461557        1.8827799372
 H          6.5271169546        0.0391886135        2.5612796268
 C          4.5249226021       -0.2913841685        1.8491302981
 H          3.9605375015        0.2027903942        2.6454789273
 H          4.6268202495       -1.3386235663        2.1245534136
 H          6.4867114555       -3.1947090995       -0.3358787634
 H          5.6486984047       -2.5213922763        1.0448697216
 H          5.2698378628       -1.6965151389       -1.8707599195
 H          4.2550525748       -2.8399298432       -1.0152889470
 O          3.1329599227       -0.6137038046       -1.6443451398
 C          2.0972530250        0.3167912640       -1.6812550096
 O          1.5395769465        0.3802975167       -2.7907504035
 O          2.4017198772        1.4940980917        1.7158868267
 C          0.7142106575        2.0494431619       -0.3828552759
 C         -0.3399137657        1.4980129700        0.5460384202
 C         -0.8998605434        2.2963629978        1.5374915266
 C         -1.8584396131        1.7903140596        2.3961874225
 C         -2.2925462976        0.4833733353        2.2662616288
 C         -1.7415448164       -0.3223969609        1.2772830632
 C         -0.7648794810        0.1819337998        0.4305332230
 H         -0.3365690253       -0.4628511761       -0.3238007076
 N         -2.1731238736       -1.6565530539        1.1004894990
 S         -3.0643207638       -1.9534161469       -0.2876431142
 O         -3.4652849659       -3.3398727212       -0.2020604345
 O         -2.2998986219       -1.5651949154       -1.4432631297
 C         -4.4965216294       -0.9025514389       -0.1090390124
 C         -4.3853261521        0.4365123828       -0.4276367860
 C         -5.4731604771        1.2679693365       -0.2120044454
 C         -6.6454503628        0.7498834758        0.3169101896
 C         -6.7419567616       -0.5976223575        0.6300127854
 C         -5.6563216107       -1.4331593709        0.4215489038
 H         -5.6856753328       -2.4870487423        0.6469248179
 H         -7.6559446060       -0.9985171029        1.0375954059
 H         -7.4891013584        1.4007472711        0.4836730678
 H         -5.3974634599        2.3149918026       -0.4572407731
 H         -3.4614526718        0.8038138076       -0.8441725815
 H         -2.6739899958       -2.0256648868        1.8978437331
 H         -3.0439296704        0.0832774974        2.9304861443
 H         -2.2746021417        2.4181792783        3.1686909111
 H         -0.5596579722        3.3155999692        1.6446972348
 H          1.1553640766        2.9254809443        0.1222278061
 C          0.1241065890        2.5416363998       -1.6934654608
 C         -1.0346593232        1.8788172591       -2.3685260732
 C         -1.2165318029        3.2163247980       -1.7195536102
 H         -1.3434588370        4.0798635729       -2.3545741138
 H         -1.7754198057        3.2567991626       -0.7965600879
 H         -1.0108693915        1.8170663448       -3.4458856588
 H         -1.4590366497        0.9980006828       -1.9106720658
 H          0.8878494362        2.9433926106       -2.3507277406
