  62
        -98.95212180
 C         -2.3607747765       -0.3255861770        0.0408086753
 C         -1.5161947679        0.2383440603       -0.9432433162
 C         -1.5092278445        1.7043492148       -1.0244221635
 C         -2.2819333915        2.4124563666       -0.1810300274
 C         -2.3862300587        3.9099690336       -0.1625586814
 C         -1.3915900823        4.5447110559        0.8173743551
 C          0.0445551003        4.0456022069        0.6575510601
 H          0.1031862470        2.9976818522        0.9612745427
 H          0.6635739429        4.6099502723        1.3594589640
 C          0.6178467412        4.1912671842       -0.7589080557
 H          1.6370726593        4.5759288761       -0.6814782200
 H          0.0361142362        4.9207505047       -1.3245626245
 C          0.6967083646        2.8775299011       -1.5390422172
 H          1.1507121295        2.1147555845       -0.9013160256
 H          1.3566296557        3.0275357934       -2.3980148119
 C         -0.6364332729        2.3361135048       -2.0720045245
 H         -0.4114579652        1.5426636496       -2.7907061518
 H         -1.1738131736        3.1307870766       -2.5946875628
 H         -1.7174376084        4.3233411077        1.8364864775
 H         -1.4192916036        5.6278271180        0.6796342482
 H         -2.2109340900        4.2891802744       -1.1677562359
 H         -3.3999841422        4.1754357558        0.1438821158
 O         -3.0619423498        1.8367821142        0.7703741285
 C         -3.1065445380        0.4600487719        0.9171163065
 O         -3.8430200746        0.0626781096        1.8445798722
 H         -0.4453836642       -0.8731775046        1.6571705761
 C         -0.1517656672       -1.7744667909        1.1386303538
 C         -1.0652702606       -2.4260902840        0.3201655278
 C         -0.6648035985       -3.5918985470       -0.3213247475
 C          0.6257613853       -4.0690024758       -0.1693616161
 C          1.5476648803       -3.3853105399        0.6019715093
 C          1.1526457143       -2.2246751564        1.2568943119
 N          2.0567183086       -1.4761395287        2.0397674917
 S          2.3854634116        0.0885609012        1.5339063687
 O          3.3563412660        0.5923279551        2.4820916544
 O          1.1605837084        0.8349845734        1.4189378073
 C          3.1712572836       -0.1134871638       -0.0555838309
 C          2.4066113282       -0.4298415864       -1.1608691722
 C          3.0479673987       -0.6434523350       -2.3721036156
 C          4.4274539278       -0.5420610063       -2.4582330419
 C          5.1799821665       -0.2251748788       -1.3370721065
 C          4.5481219743       -0.0134771633       -0.1229117964
 H          5.0892622781        0.2374791316        0.7751793833
 H          6.2529982878       -0.1448815727       -1.4045314460
 H          4.9175214233       -0.7098409321       -3.4043884913
 H          2.4544460763       -0.8886111552       -3.2381856943
 H          1.3322245220       -0.4989398003       -1.0826009675
 H          2.9302474123       -1.9533812679        2.2177172087
 H          2.5625927335       -3.7410413812        0.6977492548
 H          0.9228557596       -4.9749465947       -0.6751478810
 H         -1.3622205845       -4.1241232496       -0.9473052761
 C         -2.4470488041       -1.8349331385        0.1829850330
 H         -2.9995154453       -2.0238760824        1.1155286219
 C         -3.2329495345       -2.4149744663       -0.9764242794
 C         -4.0612847469       -3.6500205612       -0.7912349292
 C         -4.7277856402       -2.3180521608       -0.9548014242
 H         -5.2448902824       -2.1068968775       -1.8787519085
 H         -5.1791674038       -1.8576034612       -0.0877176095
 H         -4.0727214031       -4.1030123622        0.1886032618
 H         -4.1260581298       -4.3552393394       -1.6061225188
 H         -2.7364856278       -2.2668564832       -1.9287777222
 O         -0.8140654197       -0.4528886749       -1.7283141191
