  62
        -98.94106351
 C         -2.0475699805       -0.3992555698        0.0174987934
 C         -3.1382628997       -1.1462528019        0.5349682227
 C         -4.3508683031       -0.3877238945        0.8673660985
 C         -4.3465013366        0.9497211952        0.7252362551
 C         -5.5245264453        1.8438974342        0.9794349429
 C         -6.3536169402        2.0450487773       -0.2968193248
 C         -6.6964195385        0.7437662855       -1.0223200094
 H         -7.3076377991        1.0058226289       -1.8886813502
 H         -5.7760440026        0.2952464256       -1.4034434140
 C         -7.4429837008       -0.2853531610       -0.1619339352
 H         -8.2698626658       -0.6953891246       -0.7456378447
 H         -7.8751592274        0.2055446520        0.7107913181
 C         -6.5893244080       -1.4701210588        0.2943751660
 H         -7.2575330659       -2.2330194090        0.7025746364
 H         -6.0816024124       -1.9090967414       -0.5683659342
 C         -5.5381443952       -1.1611672413        1.3679276315
 H         -6.0095595989       -0.6436559364        2.2059215288
 H         -5.1431146988       -2.1145474619        1.7309209035
 H         -7.2735750027        2.5693687634       -0.0318965183
 H         -5.7862862611        2.6798219369       -0.9816146741
 H         -5.1537455671        2.8127863163        1.3184026618
 H         -6.1426523722        1.4084140207        1.7622106043
 O         -3.2657223436        1.6394731734        0.2850249102
 C         -2.0932359061        0.9920142281       -0.0918992042
 O         -1.2056961619        1.7670639111       -0.4918468636
 O         -3.0977697325       -2.3929338711        0.7116167247
 C         -0.7921235686       -1.1729672880       -0.3486434012
 C          0.4144264459       -0.5358136534        0.2899607612
 C          0.6349830248       -0.7180283894        1.6519901843
 C          1.7112619338       -0.1204379722        2.2804470292
 C          2.5890251021        0.6737234954        1.5640785694
 C          2.3773710539        0.8613229940        0.2045433841
 C          1.3053143995        0.2456064646       -0.4285742935
 H          1.1392900161        0.4163297925       -1.4806492397
 N          3.2586638394        1.6723793236       -0.5259252640
 S          4.8997658319        1.5340675625       -0.2585729559
 O          5.2677841782        2.2509370988        0.9373762273
 O          5.5227020734        1.9878205411       -1.4823551370
 C          5.1862625117       -0.2119631293       -0.0255775409
 C          5.6832114680       -0.6772422472        1.1744820985
 C          5.8707334636       -2.0404937639        1.3393141283
 C          5.5561766904       -2.9103750885        0.3072733715
 C          5.0600552609       -2.4272273572       -0.8941761534
 C          4.8717536084       -1.0656185432       -1.0646249738
 H          4.4949465844       -0.6563617045       -1.9881536155
 H          4.8176639988       -3.1062291193       -1.6958844199
 H          5.6991517832       -3.9713963275        0.4380893794
 H          6.2582985889       -2.4186686743        2.2715246127
 H          5.9141494641        0.0337270037        1.9509598745
 H          3.0321554064        1.7610208773       -1.5045164578
 H          3.4197982551        1.1677235588        2.0412307688
 H          1.8664628633       -0.2675049986        3.3384793145
 H         -0.0580775585       -1.3269228613        2.2160706710
 H         -0.9411790975       -2.1602777188        0.1178795073
 C         -0.6165871937       -1.4246488409       -1.8389893244
 C         -1.8058162253       -1.7020544307       -2.7079559559
 C         -1.0218097012       -0.4390159346       -2.8921293622
 H         -0.4006340339       -0.3481321244       -3.7717822061
 H         -1.4597625957        0.4934757847       -2.5724993081
 H         -1.7294794470       -2.4728856585       -3.4598553232
 H         -2.7817010669       -1.6337781503       -2.2494979777
 H          0.2752812589       -2.0098626261       -2.0423643929
