  62
        -98.94594091
 C          2.1144679433        1.4926091899        0.0031795711
 C          1.8349746052        0.3726260789       -0.8166292578
 C          2.8980435104       -0.6405715638       -0.8929015472
 C          4.0521735801       -0.4393636159       -0.2313929106
 C          5.1948225377       -1.4112677696       -0.1848438971
 C          5.0684415063       -2.3603837185        1.0151979398
 C          3.6885943436       -3.0042903198        1.1517960099
 H          3.7284791629       -3.6765402674        2.0116188323
 H          2.9544931479       -2.2292606649        1.3841665547
 C          3.2262440189       -3.7843492324       -0.0866992399
 H          4.0832611625       -4.0132267344       -0.7212481407
 H          2.8018141389       -4.7361387987        0.2391821046
 C          2.1527147673       -3.0771755456       -0.9161507847
 H          1.7429875601       -3.8009775860       -1.6256986732
 H          1.3391162270       -2.7547268160       -0.2617369567
 C          2.6280550935       -1.8630171303       -1.7241030403
 H          3.5066737543       -2.1318351564       -2.3139813236
 H          1.8259638657       -1.5825971629       -2.4129983919
 H          5.2741158609       -1.7945707242        1.9269259248
 H          5.8282077916       -3.1385065820        0.9208119889
 H          5.2191732560       -1.9813264090       -1.1114950150
 H          6.1237567185       -0.8458134697       -0.0929503482
 O          4.2943362863        0.6658827700        0.5195555750
 C          3.3281658491        1.6460131299        0.6732880334
 O          3.6633124856        2.5893828227        1.4181572184
 H         -1.4836060514        2.4844538154       -0.8789274611
 C         -1.4015603714        1.9811844944        0.0712788368
 C         -0.1895291902        1.9542985456        0.7399001275
 C         -0.1178196592        1.2876284093        1.9609688873
 C         -1.2301461656        0.6676710953        2.4960852260
 C         -2.4384569222        0.6882781995        1.8203768932
 C         -2.5176358753        1.3430272028        0.5993681433
 N         -3.7321135602        1.3504490730       -0.1046651997
 S         -4.6315355925       -0.0585491058       -0.1497061886
 O         -5.3847772889        0.0172569497       -1.3824859724
 O         -5.4191488242       -0.1658116741        1.0543191760
 C         -3.4578623660       -1.4018722067       -0.2175512405
 C         -3.5732929881       -2.4452298384        0.6788920554
 C         -2.6635457950       -3.4882042675        0.6155659218
 C         -1.6558121237       -3.4678244217       -0.3362420984
 C         -1.5541160686       -2.4133028004       -1.2302309073
 C         -2.4633723293       -1.3703219571       -1.1743726547
 H         -2.3909690086       -0.5396772047       -1.8571854498
 H         -0.7623003394       -2.3826299684       -1.9607578113
 H         -0.9434984270       -4.2767317064       -0.3818912792
 H         -2.7399803037       -4.3096295085        1.3098197055
 H         -4.3672159344       -2.4165327051        1.4077377876
 H         -3.6778268949        1.7804216487       -1.0162599129
 H         -3.3169696596        0.2105765532        2.2228842480
 H         -1.1582142432        0.1587412770        3.4453390755
 H          0.8298234091        1.2600469707        2.4821990569
 C          1.0673659264        2.5781297933        0.1849557689
 H          1.4703261279        3.2682958983        0.9394204052
 C          0.8644823801        3.3374087201       -1.1091853953
 C          0.3055154712        4.7275755263       -1.0831688456
 C          1.7511693525        4.5064008208       -1.4104107434
 H          2.0793066267        4.6560736945       -2.4281692035
 H          2.4927610480        4.7709439750       -0.6707252283
 H         -0.3574914390        5.0345757942       -1.8781602978
 H          0.0624174806        5.1499747510       -0.1199229302
 H          0.5968032933        2.6923544805       -1.9381386212
 O          0.7603364545        0.2239113621       -1.4531512550
