  62
        -98.93564080
 C         -2.6138797405       -0.7653770377        0.7028158937
 C         -2.7899279167       -0.2283564978       -0.5969955478
 C         -3.3612944817        1.1270978113       -0.6574270010
 C         -3.6737156735        1.7687565542        0.4821372588
 C         -4.2035854283        3.1704433832        0.5624264477
 C         -3.0609407110        4.1867298547        0.6993589656
 C         -1.9338811285        3.9910854195       -0.3151271940
 H         -1.1998267250        4.7807593410       -0.1411900481
 H         -1.4350782401        3.0393319602       -0.1169505136
 C         -2.3857911414        4.0277946682       -1.7817526665
 H         -3.3660645554        4.5001223828       -1.8554161606
 H         -1.6851737444        4.6445207869       -2.3484399713
 C         -2.4301914921        2.6608827182       -2.4676773798
 H         -1.4794437117        2.1420833230       -2.3184931188
 H         -2.5476056912        2.8235723801       -3.5423505785
 C         -3.5619195835        1.7269589738       -2.0205566860
 H         -4.5175555063        2.2522680279       -2.0752446719
 H         -3.5908948774        0.8847162877       -2.7180803181
 H         -3.4772963645        5.1900886996        0.5939889320
 H         -2.6377567271        4.0978757989        1.7026539516
 H         -4.7894023479        3.3835488669       -0.3294696188
 H         -4.8508846112        3.2444878344        1.4379089107
 O         -3.4835314881        1.2243506158        1.7116790771
 C         -2.9277243843       -0.0367629344        1.8525377100
 O         -2.7573524121       -0.3899832812        3.0371132622
 H          0.1384043322       -0.5695713423        0.9602906748
 C          0.2598411288       -1.3523591733        0.2198170748
 C         -0.7645326063       -2.2764401569        0.0483355008
 C         -0.5991613967       -3.2782646258       -0.8973206351
 C          0.5560623484       -3.3367105322       -1.6579504656
 C          1.5642372674       -2.4049034621       -1.4973837526
 C          1.4117746889       -1.4000231550       -0.5501235081
 N          2.4178630580       -0.4229913289       -0.3901311427
 S          4.0024934540       -0.9795100025       -0.1967241984
 O          4.4907371049       -1.4300899130       -1.4750328791
 O          4.0643295394       -1.9452595651        0.8791109819
 C          4.8330115655        0.5260895431        0.2684917090
 C          5.1112905143        1.4548754215       -0.7163698124
 C          5.7383777717        2.6385003218       -0.3616867931
 C          6.0747932610        2.8722645113        0.9636694024
 C          5.7902796864        1.9298429460        1.9402427187
 C          5.1610368375        0.7445278023        1.5926739631
 H          4.9266454979       -0.0190779953        2.3171692592
 H          6.0554962730        2.1127425183        2.9691414118
 H          6.5644953767        3.7935787884        1.2370824220
 H          5.9632133952        3.3731054680       -1.1180145649
 H          4.8398438789        1.2266023470       -1.7337145640
 H          2.1928739836        0.2161897950        0.3612425771
 H          2.4656641871       -2.4438640985       -2.0868318299
 H          0.6701133060       -4.1173416474       -2.3951899990
 H         -1.3829411961       -4.0000816336       -1.0575638784
 C         -1.9896139044       -2.1335881838        0.9194235960
 H         -1.6508761816       -2.1272427543        1.9693540519
 C         -2.9627334428       -3.2957473818        0.7919527751
 C         -4.4184814487       -3.1186331450        1.1025692902
 C         -3.9790039149       -3.3791718532       -0.3053084996
 H         -4.1888882651       -4.3480442496       -0.7346695533
 H         -4.0132422313       -2.5699338722       -1.0168130508
 H         -4.9268378114       -3.9053957402        1.6395231804
 H         -4.7582154202       -2.1255756185        1.3592711296
 H         -2.5156831109       -4.2312651930        1.1147897799
 O         -2.4891554049       -0.8332952687       -1.6571979481
