  62
        -98.94530980
 C          1.5682181684        0.9487904807        0.3276608298
 C          2.8854378585        1.1323983412        0.8157882396
 C          3.9683082284        0.7972699505       -0.1147758302
 C          3.6724365383        0.3444222295       -1.3466605599
 C          4.6653179383       -0.0315640213       -2.4130029896
 C          5.2103479684       -1.4603607812       -2.2808831885
 C          6.1963474185       -1.6781439702       -1.1323158984
 H          6.6615610885       -2.6531411003       -1.2907006877
 H          6.9861109684       -0.9281601102       -1.1860754591
 C          5.5580433785       -1.6578337192        0.2636502316
 H          4.4775159885       -1.7926119593        0.1720334818
 H          5.9357112686       -2.4994665287        0.8487674022
 C          5.8332750685       -0.3871082485        1.0677137006
 H          6.9021028886       -0.3120937183        1.2797020904
 H          5.3055127686       -0.4643107378        2.0216599507
 C          5.3795650984        0.9063884209        0.3787331396
 H          5.4134035385        1.7152947215        1.1125771389
 H          6.0520665584        1.1506410703       -0.4431081807
 H          4.3671073784       -2.1469619911       -2.1731770579
 H          5.7178718983       -1.7031284719       -3.2174162784
 H          4.1414500182        0.0495068379       -3.3678565597
 H          5.4940185883        0.6770372087       -2.4095944302
 O          2.3941234483        0.1913578691       -1.7825861796
 C          1.3118508184        0.4705295997       -0.9577671298
 O          0.2042787583        0.2689415692       -1.4899642196
 H         -2.1230212615        0.3386705808        0.6442759406
 C         -1.5508644714       -0.3737934787        1.2103266511
 C         -0.2635265414       -0.0634552584        1.6154075707
 C          0.4466256087       -1.0034053077        2.3595561614
 C         -0.1209497613       -2.2195486275        2.6849666024
 C         -1.4018458713       -2.5320913379        2.2602312928
 C         -2.1160850414       -1.6055859685        1.5129647721
 N         -3.4256613614       -1.8736967289        1.0714855124
 S         -3.7335604915       -1.7437508302       -0.5795132377
 O         -4.9727347115       -2.4724431504       -0.7636976170
 O         -2.6107869815       -2.2089097808       -1.3596249774
 C         -4.0448552116       -0.0135019305       -0.8516304190
 C         -3.1889260717        0.7283574889       -1.6417136497
 C         -3.4614852018        2.0746222388       -1.8326707607
 C         -4.5726357418        2.6496360392       -1.2349285911
 C         -5.4222139717        1.8875667398       -0.4465367904
 C         -5.1596525216        0.5411241099       -0.2533739094
 H         -5.7957559815       -0.0897835796        0.3446895011
 H         -6.2840094817        2.3392428001        0.0177279793
 H         -4.7743834818        3.6989298791       -1.3839493819
 H         -2.7960527318        2.6670470483       -2.4409705112
 H         -2.3128022717        0.2560302987       -2.0594649494
 H         -3.8016459413       -2.7462001587        1.4173078731
 H         -1.8429332512       -3.4873214777        2.5036062535
 H          0.4390318488       -2.9363725170        3.2668826029
 H          1.4519940287       -0.7642454674        2.6784924812
 C          0.4056845585        1.2419929714        1.2615074597
 H          0.8648270085        1.6460837621        2.1751682993
 C         -0.5344029716        2.2767962809        0.6826876789
 C         -1.5061580916        2.9833604116        1.5786519484
 C         -0.3325772116        3.7237669612        1.0130772078
 H         -0.5068948317        4.4564187905        0.2397550872
 H          0.4820624484        3.9756207417        1.6762732375
 H         -2.4901802016        3.2049370212        1.1939846083
 H         -1.4883432315        2.7318989424        2.6281651686
 H         -0.8560562317        2.0383611201       -0.3237823709
 O          3.1430162285        1.5576074321        1.9735871092
