  62
        -98.93811923
 C         -2.5372283213       -0.2505011912        0.0310530575
 C         -2.3526655269        0.7724115031        0.9865710103
 C         -2.1426092807        2.1399103690        0.4750534897
 C         -2.1579037515        2.3409434852       -0.8557370899
 C         -1.9605141020        3.6287934196       -1.6116731966
 C         -0.4876106075        4.0571559745       -1.6844445105
 C          0.2753632746        3.9578028970       -0.3664742483
 H          0.2705598512        2.9201902210       -0.0249512805
 H          1.3189742832        4.2138571872       -0.5695496712
 C         -0.2209037056        4.8797600810        0.7454380143
 H         -0.1736910186        5.9144435589        0.3977494357
 H          0.4759970862        4.7770495430        1.5813956737
 C         -1.6321623646        4.6090288713        1.2730095958
 H         -1.7352494236        5.1532111507        2.2164567904
 H         -2.3889248111        5.0072152917        0.6023639900
 C         -1.9249100601        3.1442785523        1.5805726971
 H         -1.1150498228        2.7378641768        2.1990420193
 H         -2.8220874720        3.0886476188        2.2092435743
 H         -0.4454683871        5.0824138875       -2.0573769217
 H          0.0177189279        3.4100268413       -2.4053747221
 H         -2.3207566439        3.4504564641       -2.6274356104
 H         -2.5703314837        4.4149153749       -1.1763060936
 O         -2.3481308461        1.3218808683       -1.7427004096
 C         -2.4990279034        0.0097886466       -1.3373834980
 O         -2.6031362572       -0.8106181034       -2.2702440011
 H         -0.1428004479       -0.8527747051        0.3621594622
 C         -0.2286730210       -1.8773228560        0.0314880404
 C         -1.4753491683       -2.4894629062        0.0256189585
 C         -1.5603708294       -3.8127379474       -0.3873437876
 C         -0.4230038856       -4.4921445197       -0.7907266213
 C          0.8133884654       -3.8741913629       -0.7933772049
 C          0.9082678068       -2.5465713297       -0.3864861170
 N          2.1375388578       -1.8695275654       -0.4315836231
 S          2.3633517052       -0.4455992258        0.4358547796
 O          2.0811732248       -0.6582258462        1.8394397354
 O          1.6434167138        0.6200719911       -0.2135385259
 C          4.1167180218       -0.2245405762        0.2002519647
 C          4.9937093583       -0.7467726191        1.1324435396
 C          6.3565999147       -0.6003905794        0.9274791358
 C          6.8173911411        0.0606356007       -0.2012684989
 C          5.9254353177        0.5819109449       -1.1266752530
 C          4.5613499875        0.4387099642       -0.9274264973
 H          3.8293399810        0.8327997308       -1.6133094738
 H          6.2866387593        1.0988229277       -2.0010323541
 H          7.8783053733        0.1734808028       -0.3590300044
 H          7.0520605285       -1.0010067808        1.6472281573
 H          4.5891078868       -1.2417246788        2.0006844430
 H          2.9420286172       -2.4792672344       -0.4000518901
 H          1.6957424256       -4.4048376764       -1.1161204720
 H         -0.5022211835       -5.5205274663       -1.1092018471
 H         -2.5161076281       -4.3108289226       -0.3957673699
 C         -2.6640823212       -1.6870054300        0.4999658405
 H         -2.6203491768       -1.6398275752        1.5996783715
 C         -3.9952867107       -2.2797442207        0.0882714375
 C         -4.6653369114       -3.3095491792        0.9468314988
 C         -5.2193828812       -1.9195361409        0.8739993570
 H         -6.1443741830       -1.7565353968        0.3418733468
 H         -5.0848322502       -1.2684939608        1.7257706933
 H         -5.2153097695       -4.1035310802        0.4645744111
 H         -4.1640906184       -3.6057798898        1.8560579332
 H         -4.0964401905       -2.3611320930       -0.9879743427
 O         -2.3586900441        0.5562487439        2.2314685454
