  62
        -98.93286418
 C         -1.9773103199       -1.0303919887        0.4591173200
 C         -2.7113864098       -0.0388884782        1.1585110995
 C         -4.1279928898        0.1048441218        0.8023767293
 C         -4.6578096999       -0.6978194387       -0.1377193403
 C         -6.0936128698       -0.7318920787       -0.5903905004
 C         -6.6132225897        0.5319812810       -1.3021323710
 C         -7.3148771796        1.5345814415       -0.3776117916
 H         -8.1870144195        1.9388357513       -0.8955927718
 H         -7.6897959897        1.0026262620        0.4977096187
 C         -6.4707773495        2.7303056016        0.0741407979
 H         -6.9914648295        3.2123401521        0.9045033276
 H         -6.4128369794        3.4547324512       -0.7415503325
 C         -5.0388142195        2.4127559217        0.5057687781
 H         -4.4226926595        2.2207117412       -0.3761424418
 H         -4.6216948295        3.3017887919        0.9833013877
 C         -4.9054395897        1.2085298622        1.4580934487
 H         -4.3440805997        1.4988643926        2.3485245986
 H         -5.8867738598        0.8542290824        1.7704559488
 H         -5.7929830696        1.0131449306       -1.8343489912
 H         -7.3331857197        0.1991126506       -2.0514950909
 H         -6.7278365199       -0.9479469382        0.2724307197
 H         -6.1619304199       -1.5796762591       -1.2751502099
 O         -3.9226841499       -1.6408478991       -0.7835908898
 C         -2.5678426600       -1.8216912291       -0.5272234596
 O         -2.0423110500       -2.7023451095       -1.2306655192
 O         -2.2027025298        0.6853047722        2.0568992791
 C         -0.5124481700       -1.1722718486        0.8307865401
 C          0.3455085402       -0.2813760792       -0.0300685303
 C          0.2597889002       -0.3206533098       -1.4182561203
 C          1.0612793004        0.4967776297       -2.1944289806
 C          1.9654790104        1.3637792999       -1.6055507410
 C          2.0611391904        1.4076760106       -0.2215129910
 C          1.2537623703        0.5877100910        0.5563390093
 H          1.3213830002        0.6381529316        1.6346675793
 N          3.0062736404        2.2661284808        0.3770936686
 S          4.6063283904        1.9765319504       -0.0414981512
 O          5.3959047304        2.5817898408        1.0062998085
 O          4.8421851205        2.4577890697       -1.3782079014
 C          4.7406068702        0.1993235204        0.0098227297
 C          4.5838019702       -0.5305554002       -1.1512413599
 C          4.5792984301       -1.9142704201       -1.0758011292
 C          4.7303893499       -2.5407052095        0.1511736611
 C          4.8961749800       -1.7932538190        1.3074000007
 C          4.8942392701       -0.4095665090        1.2398114300
 H          5.0209369701        0.2069394314        2.1155754097
 H          5.0165347599       -2.2843235885        2.2597270710
 H          4.7151969098       -3.6173089195        0.2074808416
 H          4.4507214700       -2.4986323206       -1.9726155489
 H          4.4725132103       -0.0069766506       -2.0863159602
 H          2.9180014504        2.3165372713        1.3823224785
 H          2.6025504705        2.0025625495       -2.1958027513
 H          0.9818939904        0.4582688691       -3.2703982306
 H         -0.4381000598       -1.0032294600       -1.8793017499
 H         -0.4525559500       -0.7882983881        1.8615862399
 C         -0.0246595601       -2.6145756687        0.8551547309
 C          0.9943709599       -3.1630469693       -0.0940057688
 C          1.3629965798       -2.9205895986        1.3365349711
 H          1.5094823597       -3.7679023583        1.9885050716
 H          2.0106244899       -2.0819903085        1.5450891307
 H          0.8588287698       -4.1779053794       -0.4343809683
 H          1.4051807400       -2.5041367697       -0.8423854291
 H         -0.8083404702       -3.2990183884        1.1624490812
