  62
        -98.93423662
 C          2.0563601059        1.1075297811        0.0411295992
 C          2.3736014527       -0.2690507955       -0.0344333836
 C          3.7339298696       -0.6642963323        0.3963263964
 C          4.5729081032        0.2779504053        0.8625169273
 C          5.9998363147        0.1223689484        1.3174157028
 C          6.9809785491       -0.0366919520        0.1457148247
 C          6.5287030506       -1.0091674065       -0.9401181589
 H          7.2592597975       -0.9631509371       -1.7520681272
 H          5.5724699127       -0.6741155866       -1.3459727843
 C          6.4106359174       -2.4666086894       -0.5001836995
 H          7.3753361122       -2.8039624126       -0.1147205604
 H          6.1858261715       -3.0566122646       -1.3924777347
 C          5.3355220407       -2.7664821003        0.5474504652
 H          5.6670010271       -2.4881110738        1.5442939059
 H          5.1898703761       -3.8506697676        0.5621203045
 C          3.9715700846       -2.1487738756        0.2558587115
 H          3.2258724259       -2.6261913182        0.9033916051
 H          3.6709985367       -2.4109104768       -0.7652690721
 H          7.9455442013       -0.3551502120        0.5446963822
 H          7.1150866361        0.9433744759       -0.3189227838
 H          6.0840590501       -0.7112286263        2.0081498469
 H          6.2549297227        1.0335512194        1.8631918225
 O          4.2096682875        1.5898124645        0.9511041475
 C          2.9640635298        2.0349316076        0.5591452028
 O          2.7809677080        3.2579431783        0.7229784805
 O          1.5796389303       -1.1521691664       -0.4503841103
 C          0.6963632674        1.6537635216       -0.3624331799
 C         -0.3962278297        0.8107485667        0.2456275533
 C         -0.6109046245        0.8829184865        1.6189634057
 C         -1.5847614268        0.1117510994        2.2246033461
 C         -2.3667941373       -0.7471878957        1.4729079928
 C         -2.1612789861       -0.8251023319        0.1018816879
 C         -1.1902791191       -0.0397248882       -0.5066857368
 H         -1.0240107707       -0.1288225305       -1.5687750955
 N         -2.9491434298       -1.6968810377       -0.6647125024
 S         -4.5873434672       -1.7869776866       -0.3584194578
 O         -4.8306864266       -2.6294758819        0.7863014156
 O         -5.1812663364       -2.2263047367       -1.6017445618
 C         -5.0813096005       -0.1121204429        0.0113949431
 C         -5.6133265017        0.1944569051        1.2469798382
 C         -5.9601303541        1.5079963774        1.5208671814
 C         -5.7665235597        2.4877535390        0.5599122725
 C         -5.2343329495        2.1633901841       -0.6788529890
 C         -4.8873674367        0.8518838014       -0.9583144217
 H         -4.4781393413        0.5654591269       -1.9137364029
 H         -5.0864005634        2.9275096818       -1.4250604983
 H         -6.0324645767        3.5105286855        0.7757882359
 H         -6.3761909714        1.7625820568        2.4823697491
 H         -5.7454820895       -0.5976295166        1.9659994222
 H         -2.7400023760       -1.6930212368       -1.6512800431
 H         -3.1157913062       -1.3727534785        1.9306466678
 H         -1.7346095136        0.1747163797        3.2917793478
 H          0.0079650884        1.5458332787        2.2085817609
 H          0.6484394875        2.6513064398        0.1034271808
 C          0.5258236563        1.8705686743       -1.8587693226
 C          1.6791909294        2.3354338739       -2.6957192246
 C          1.1196944667        0.9594841282       -2.8888872462
 H          0.5504952976        0.7617830397       -3.7860075274
 H          1.6938341933        0.1144520728       -2.5438848495
 H          1.4972291565        3.0789644936       -3.4569913633
 H          2.6385353945        2.4353043106       -2.2087430299
 H         -0.4423527311        2.3031375971       -2.0927399832
