  62
        -98.94051392
 C          2.4866127704        1.1030833697       -0.1967946722
 C          2.2081967701       -0.2836362703       -0.2674602610
 C          3.2060261001       -1.1653720599        0.3532977894
 C          4.2793227904       -0.6382435396        0.9692388888
 C          5.3673508304       -1.4056730493        1.6702793091
 C          6.4646701901       -1.9321912202        0.7350764693
 C          6.0551117397       -3.1087471908       -0.1516639797
 H          6.9700776495       -3.5145911113       -0.5876603896
 H          5.6138957997       -3.8914224603        0.4662464411
 C          5.0894538295       -2.7400035416       -1.2864473697
 H          5.4289532292       -3.1999796524       -2.2171747495
 H          5.1035804696       -1.6585017617       -1.4394988806
 C          3.6452015194       -3.1878285512       -1.0610626190
 H          3.5982685293       -4.2788696611       -1.0385615582
 H          3.0432219193       -2.8420546617       -1.9051528892
 C          3.0098414198       -2.6461458900        0.2262472407
 H          1.9339056398       -2.8356187899        0.1875709911
 H          3.4220010500       -3.1601092494        1.0945421010
 H          7.3002893202       -2.2512120398        1.3622039893
 H          6.8146306601       -1.1082798208        0.1089958085
 H          4.9299940004       -2.2363715487        2.2250799899
 H          5.8239613707       -0.7146405688        2.3821857785
 O          4.4925686406        0.7024367104        1.0450772576
 C          3.6131766906        1.5991450501        0.4632142471
 O          3.9382006509        2.7958255701        0.5995927661
 O          1.1882609499       -0.7723637305       -0.8209515204
 C          1.5344354804        2.1286968694       -0.7924126828
 C          0.2675201206        2.1172041503        0.0284272375
 C          0.2624086210        2.7641201413        1.2613169670
 C         -0.8557516588        2.7260714521        2.0719854473
 C         -1.9913306890        2.0403747020        1.6750121981
 C         -1.9910209894        1.3798049410        0.4542893686
 C         -0.8692797496        1.4306314802       -0.3654668517
 H         -0.8762673699        0.9028990494       -1.3060700313
 N         -3.1426665296        0.6870352809        0.0217096195
 S         -3.8432669796       -0.4509505082        1.0546546805
 O         -4.3254350392        0.2238377729        2.2330040701
 O         -2.9406387197       -1.5591513081        1.2836854112
 C         -5.2221236899       -0.9710795087        0.0529872213
 C         -6.3707995798       -0.2032765485        0.0619590309
 C         -7.4370043500       -0.5837815390       -0.7370171585
 C         -7.3368525004       -1.7185899596       -1.5281995076
 C         -6.1776319705       -2.4796037298       -1.5259841273
 C         -5.1070471503       -2.1037297294       -0.7296599078
 H         -4.1902343204       -2.6704774295       -0.6901602776
 H         -6.1032851108       -3.3627202503       -2.1400768666
 H         -8.1680575606       -2.0138024200       -2.1489404672
 H         -8.3407236399        0.0039516812       -0.7401606188
 H         -6.4053798395        0.6649173820        0.6988411502
 H         -2.9742632199        0.2376192601       -0.8699080502
 H         -2.8624237189        1.9919987827        2.3069766083
 H         -0.8465636185        3.2342679229        3.0247752069
 H          1.1551224812        3.2856234014        1.5793544063
 H          2.0181468406        3.1046176495       -0.6522816937
 C          1.3163259300        1.9021705783       -2.2733333826
 C          0.7158274800        2.9966162177       -3.1019068733
 C          2.1647479499        2.6474949573       -3.2574806634
 H          2.4798837596        2.1371471966       -4.1553051730
 H          2.9021853501        3.3316952675       -2.8635462741
 H          0.0352790898        2.7298313972       -3.8959112729
 H          0.4679085703        3.9199127282       -2.6005813040
 H          1.0615197898        0.8787304081       -2.5185152317
