  62
        -98.93812672
 C         -2.5510558478       -1.1712467516        0.2202611287
 C         -2.7229222706       -0.4140701868       -0.9616200452
 C         -3.6075592073        0.7617654743       -0.8594658922
 C         -4.1806494067        1.0491254816        0.3221554285
 C         -5.0626134175        2.2219063056        0.6515276252
 C         -4.2321126830        3.3844650540        1.2214859158
 C         -3.6455945672        4.3317889059        0.1753376682
 H         -4.4515837684        4.9240736620       -0.2627582467
 H         -2.9798612849        5.0216912227        0.6992317818
 C         -2.8644976193        3.6576189226       -0.9558503431
 H         -2.2256351156        2.8723651095       -0.5467283606
 H         -2.2076998294        4.4072737523       -1.4013146939
 C         -3.7703491320        3.0762031434       -2.0515859485
 H         -3.4331068799        3.4344442684       -3.0262811912
 H         -4.7824377329        3.4568081114       -1.9155397578
 C         -3.8006827342        1.5427615468       -2.1306860953
 H         -4.7422237101        1.2280728322       -2.5927927532
 H         -2.9981575737        1.1963165483       -2.7896020926
 H         -4.8638328644        3.9708196522        1.8918435109
 H         -3.4267754349        2.9567953464        1.8248868157
 H         -5.6303656430        2.5341110953       -0.2197772302
 H         -5.7577279743        1.8815067179        1.4218569488
 O         -3.9733431173        0.2998394860        1.4415814837
 C         -3.1570041846       -0.8159713046        1.4236405988
 O         -3.0456388306       -1.3938568240        2.5252125654
 O         -2.1604683203       -0.6985755642       -2.0506438420
 C         -1.6597392352       -2.3987795770        0.2076722134
 C         -0.2531185874       -2.0282823175       -0.1990780328
 C          0.5157143718       -2.7976004979       -1.0624120574
 C          1.8095377590       -2.4183309358       -1.3767313976
 C          2.3645193353       -1.2714898988       -0.8403804556
 C          1.6094115663       -0.5007391404        0.0340544209
 C          0.3169584408       -0.8870350774        0.3519286533
 H         -0.2673904407       -0.2871485683        1.0406111827
 N          2.1661728740        0.6710333912        0.5819967555
 S          3.6109745894        0.5101193349        1.4277800919
 O          3.7314589841       -0.8035116903        2.0175136468
 O          3.6422018167        1.6309574480        2.3422085858
 C          4.8647003826        0.7387254100        0.1849114399
 C          5.8097634003       -0.2456502596       -0.0279896157
 C          6.7822675733       -0.0423213145       -0.9948110358
 C          6.7921622684        1.1350952613       -1.7268874979
 C          5.8369447460        2.1147295791       -1.4990564484
 C          4.8628605000        1.9185361935       -0.5332164592
 H          4.1054620762        2.6550601448       -0.3224572505
 H          5.8478953137        3.0290256578       -2.0702452293
 H          7.5491471290        1.2907907149       -2.4792422069
 H          7.5259334756       -0.8022814407       -1.1730590330
 H          5.7583946223       -1.1468617100        0.5617998675
 H          1.5078428771        1.2104401552        1.1257960450
 H          3.3681184532       -0.9680752883       -1.0898639952
 H          2.3927095199       -3.0236386066       -2.0536782489
 H          0.1005628474       -3.6943473336       -1.4919962310
 H         -1.6238252068       -2.7586706822        1.2472841829
 C         -2.2743255258       -3.4783058989       -0.6596855339
 C         -2.0563309254       -4.9252573155       -0.3376190188
 C         -3.3965702283       -4.2985240758       -0.1007631731
 H         -4.2155118620       -4.5647341583       -0.7518849897
 H         -3.6968772254       -4.0971387159        0.9176851012
 H         -1.9583299192       -5.6262773551       -1.1527621100
 H         -1.4492473810       -5.1606221632        0.5236564430
 H         -2.3382585394       -3.1863959054       -1.7014885943
