  62
        -98.94128719
 C         -2.3366147907       -1.1404681252        0.5348071161
 C         -2.6508709944       -0.3454287705       -0.5941991341
 C         -3.0908210692        1.0294813139       -0.3100667152
 C         -3.1749426002        1.4537653114        0.9624922551
 C         -3.5797249056        2.8351575020        1.3865201346
 C         -2.3636650140        3.7558232140        1.5528599731
 C         -1.3987365729        3.7397721639        0.3666192327
 H         -0.6178052263        4.4752590782        0.5748897301
 H         -0.9023278847        2.7676767170        0.3079395699
 C         -2.0451225023        4.0598891750       -0.9882340866
 H         -1.3882794927        4.7428355029       -1.5314286634
 H         -2.9964795007        4.5723559989       -0.8369646195
 C         -2.2579471298        2.8428396132       -1.8906857125
 H         -1.3307260719        2.2630575516       -1.9314787307
 H         -2.4658465042        3.2009312102       -2.9031001990
 C         -3.4052220211        1.9059168019       -1.4891953458
 H         -4.3109273872        2.4892020549       -1.3102817887
 H         -3.5922414594        1.2279768156       -2.3273901366
 H         -2.7246496187        4.7737486412        1.7138502396
 H         -1.8119253054        3.4448772659        2.4428436253
 H         -4.2625212828        3.2489658304        0.6469361372
 H         -4.0980146024        2.7595156446        2.3442550996
 O         -2.8716801918        0.6622656755        2.0223437362
 C         -2.4180892804       -0.6305396189        1.8338626685
 O         -2.1377245633       -1.2323975179        2.8901572550
 H         -0.4048873831       -1.2115631506       -1.4187237655
 C          0.2459178477       -1.7094879038       -0.7150471086
 C         -0.3052417264       -2.4943444451        0.2890248143
 C          0.5527436113       -3.1236324152        1.1823513885
 C          1.9240836899       -2.9586673142        1.0792438510
 C          2.4649368876       -2.1431417033        0.0999904052
 C          1.6129522817       -1.5160116609       -0.7983246420
 N          2.1488751943       -0.5958092603       -1.7439099338
 S          2.1943034372        0.9522528330       -1.0632078441
 O          1.0220139844        1.2122212519       -0.2568615534
 O          2.4291625553        1.8642149383       -2.1613675067
 C          3.6384741453        0.8523228649       -0.0315684178
 C          3.4895747999        0.7043183860        1.3329478400
 C          4.6240827979        0.5752533544        2.1191791118
 C          5.8786402087        0.5941630115        1.5288572100
 C          6.0106132833        0.7448492508        0.1561858611
 C          4.8806647955        0.8733646310       -0.6353713579
 H          4.9325084805        0.9949725195       -1.7045193430
 H          6.9881343052        0.7594902698       -0.2981366608
 H          6.7588056152        0.4905828723        2.1435973560
 H          4.5220995309        0.4565105809        3.1859383297
 H          2.4934935400        0.6900693376        1.7474233405
 H          1.5823258643       -0.5435602613       -2.5814258860
 H          3.5289675022       -1.9872540863        0.0263994905
 H          2.5769751805       -3.4537433230        1.7813580427
 H          0.1356423856       -3.7244379022        1.9773103365
 C         -1.8032794867       -2.5637191001        0.4350755532
 H         -2.0242505240       -3.0258954468        1.4097676699
 C         -2.4915576105       -3.3966805357       -0.6366470443
 C         -1.7877361380       -3.9354354386       -1.8430772221
 C         -2.1908218515       -4.8630982456       -0.7392067360
 H         -3.0070517281       -5.5489537834       -0.9071059727
 H         -1.4081008583       -5.2519219817       -0.1053015078
 H         -0.7385028788       -3.7162707338       -1.9657423087
 H         -2.3372860273       -3.9582164919       -2.7718487577
 H         -3.5255250516       -3.1013315339       -0.7790142432
 O         -2.5783625770       -0.7426396901       -1.7879783225
