  62
        -98.94087541
 C          1.8300219313        0.7205170703        0.5424872251
 C          2.3035895475       -0.0306460071       -0.5620164014
 C          3.4406519514       -0.9208643898       -0.2831882224
 C          3.9122963218       -1.0415359228        0.9699223840
 C          5.0537363061       -1.9175848734        1.4093038640
 C          6.4369780934       -1.2827539646        1.2103643530
 C          6.9115359718       -1.1976876893       -0.2409351389
 H          7.9718018339       -0.9383389116       -0.2159033215
 H          6.8279582884       -2.1799039241       -0.7072728793
 C          6.1694612484       -0.1571982887       -1.0914771472
 H          5.6454820453        0.5425025970       -0.4361831350
 H          6.8924483197        0.4251789640       -1.6669292566
 C          5.1697089500       -0.7477742806       -2.0860012463
 H          5.7015842862       -1.3468503758       -2.8283860520
 H          4.6788616360        0.0767645563       -2.6094075979
 C          4.0807262107       -1.6183871505       -1.4451140553
 H          3.3031265489       -1.8025757388       -2.1907634335
 H          4.4990873735       -2.5751090723       -1.1328996035
 H          6.4292757793       -0.2828244768        1.6505853118
 H          7.1553663705       -1.8860670283        1.7701439743
 H          4.9102977074       -2.1041059583        2.4759333310
 H          5.0096343547       -2.8706914312        0.8813748531
 O          3.3672203171       -0.3725172479        2.0212544380
 C          2.3315370471        0.5289042991        1.8322295473
 O          1.9357080126        1.0770547163        2.8810506253
 O          1.8173647160        0.0275516126       -1.7195637127
 C          0.6944768933        1.7194187414        0.3997427285
 C         -0.4336489234        1.1072000489       -0.3941309656
 C         -0.9420262569        1.6513748015       -1.5652865858
 C         -1.9804728226        1.0266077900       -2.2347037529
 C         -2.5370309854       -0.1425450570       -1.7515466071
 C         -2.0416332141       -0.6905181341       -0.5745435969
 C         -1.0072768643       -0.0597207537        0.0980608680
 H         -0.6180247860       -0.4905186356        1.0131484828
 N         -2.6082002002       -1.8734450711       -0.0683900151
 S         -4.2775998507       -1.9829327061       -0.0293131324
 O         -4.5726398361       -2.8917149748        1.0565660871
 O         -4.7699866939       -2.3738936030       -1.3266469760
 C         -4.8432923891       -0.3359487539        0.3598426939
 C         -5.6217103788        0.3591173514       -0.5428491809
 C         -6.0162815108        1.6507586238       -0.2323422701
 C         -5.6242154644        2.2229303041        0.9676198059
 C         -4.8450295922        1.5101194479        1.8663539963
 C         -4.4490980867        0.2181517338        1.5617613596
 H         -3.8474004556       -0.3641626404        2.2414982072
 H         -4.5409838324        1.9561539992        2.7997934823
 H         -5.9272730422        3.2300946617        1.2064646996
 H         -6.6237365062        2.2067379856       -0.9280143655
 H         -5.9019394593       -0.1231817330       -1.4650027623
 H         -2.1995727976       -2.1864566781        0.7994606623
 H         -3.3332279514       -0.6495271052       -2.2721143480
 H         -2.3572250969        1.4532320229       -3.1516405487
 H         -0.5073415120        2.5494549948       -1.9714145754
 H          0.3287670089        1.8787099249        1.4277412843
 C          1.1297923327        3.0825392718       -0.1178462783
 C          2.5198061554        3.5897053931        0.1224898767
 C          2.0790512096        3.2412798801       -1.2657950640
 H          1.9076778444        4.0472924361       -1.9643583716
 H          2.4665374201        2.3445550686       -1.7219616388
 H          2.6492098700        4.6306415433        0.3783742290
 H          3.2146518070        2.9295041476        0.6217141269
 H          0.3341591823        3.8167648582       -0.0389296941
