  62
        -98.94374100
 C         -1.2880774105       -1.4224079598        0.5892767890
 C         -2.1003310506       -1.0350221287       -0.5052438306
 C         -3.1669841003       -0.0685306486       -0.2026081797
 C         -3.2987401799        0.4068816105        1.0480000307
 C         -4.3023971795        1.4373845105        1.4751866817
 C         -3.7206979891        2.8543550804        1.3749163426
 C         -3.0435435293        3.1577828412        0.0376837327
 H         -2.7147932390        4.1993126310        0.0717494735
 H         -2.1383074195        2.5513340510       -0.0555007379
 C         -3.9374760296        2.9447884724       -1.1921782973
 H         -3.8015542694        3.7904331328       -1.8697492666
 H         -4.9856670195        2.9360966724       -0.8899214571
 C         -3.6294052801        1.6790639629       -1.9943713383
 H         -4.1489207002        1.7502239138       -2.9538711381
 H         -2.5571382901        1.6331960927       -2.2042009685
 C         -4.0499942604        0.3563745625       -1.3413849692
 H         -5.0926994603        0.4167681726       -1.0230866389
 H         -3.9641502907       -0.4287843069       -2.0982887598
 H         -2.9772138089        2.9824131795        2.1653548026
 H         -4.5267360189        3.5706808005        1.5462784433
 H         -5.1904093097        1.3529666512        0.8517564318
 H         -4.5773374994        1.2411876298        2.5131521416
 O         -2.4867700698        0.0311361395        2.0688787603
 C         -1.4421941901       -0.8538002907        1.8553745394
 O         -0.7271935000       -1.0514673716        2.8592485792
 H          0.6172018598        0.1431445501       -0.0584961902
 C          1.0244516795       -0.5108498694       -0.8142287608
 C          0.7269676191       -1.8664567593       -0.7690433417
 C          1.2222049187       -2.6851988587       -1.7745678824
 C          1.9856342586       -2.1468323582       -2.7971047222
 C          2.2870080190       -0.7974865983       -2.8315277712
 C          1.7930943195        0.0303910711       -1.8293103205
 N          2.0589241599        1.4076839410       -1.8176828095
 S          2.1994383004        2.2066138599       -0.3577072989
 O          0.9018258705        2.4104773098        0.2365591315
 O          2.9385664107        3.4089519999       -0.6799809382
 C          3.2075437702        1.1372314888        0.6550677901
 C          2.6860989503        0.5208125482        1.7736447997
 C          3.4943282301       -0.3365268726        2.5043718389
 C          4.8030601000       -0.5607431727        2.1076540785
 C          5.3164367700        0.0738890580        0.9863782589
 C          4.5126351101        0.9288266788        0.2512954897
 H          4.8789614501        1.4479270893       -0.6193620000
 H          6.3363462199       -0.0981607021        0.6827810286
 H          5.4252503599       -1.2322545533        2.6778816279
 H          3.0867021501       -0.8272905432        3.3740573386
 H          1.6618849504        0.7056807082        2.0600930000
 H          2.7261469198        1.7281688114       -2.5030553894
 H          2.8819350190       -0.3831448178       -3.6307990910
 H          2.3555404483       -2.7912060377       -3.5800927227
 H          0.9931710383       -3.7380725187       -1.7736626332
 C         -0.0960028108       -2.3458289400        0.4028907681
 H          0.5159209994       -2.1949227409        1.3088324281
 C         -0.4308407513       -3.8289634699        0.3553140170
 C         -1.7121668214       -4.3530120199        0.9305046368
 C         -1.4860655916       -4.3870543489       -0.5497180332
 H         -1.3054317820       -5.3445913586       -1.0162179540
 H         -2.0262390215       -3.6905588182       -1.1702721726
 H         -1.6852780515       -5.2819729903        1.4803947761
 H         -2.4154584411       -3.6327179900        1.3236813475
 H          0.4479429585       -4.4462670902        0.5142140764
 O         -1.9515177110       -1.4622422079       -1.6789609409
