  62
        -98.93291903
 C         -2.6477301608       -1.2467158262        0.2862257884
 C         -2.5413539886       -0.1680152602       -0.6250715602
 C         -3.7316627829        0.6947094702       -0.7531191354
 C         -4.8313004214        0.4260132828       -0.0305959123
 C         -6.1576357383        1.1435268781       -0.0395013682
 C         -6.1289061551        2.6789235876       -0.0285683490
 C         -4.9393056335        3.3032107431        0.7154731170
 H         -4.4207548180        2.5418701578        1.3008784708
 H         -5.3139154098        4.0523169722        1.4156440210
 C         -3.9442524126        3.9935443820       -0.2208258996
 H         -3.3540974602        4.7068028129        0.3595114884
 H         -4.5039595818        4.5629211209       -0.9662191251
 C         -2.9592302722        3.0682172704       -0.9347003127
 H         -2.2356100378        2.6704337392       -0.2177031809
 H         -2.3974757494        3.6673679043       -1.6552481671
 C         -3.5874249069        1.8739350370       -1.6713220489
 H         -2.8946833292        1.5635326787       -2.4582090516
 H         -4.5352412052        2.1462244945       -2.1293782588
 H         -7.0606276466        3.0082339967        0.4344430729
 H         -6.1396887434        3.0506024111       -1.0523472993
 H         -6.7242107431        0.8023881453       -0.9107640032
 H         -6.6820774332        0.7806057321        0.8476639406
 O         -4.8886455944       -0.6225360451        0.8391918298
 C         -3.8058357096       -1.4604264471        1.0367702514
 O         -3.9939958045       -2.3437057463        1.8974442730
 H          0.7723424852       -2.0929622757       -1.0307591688
 C          0.8450499770       -1.4673878751       -0.1546079006
 C         -0.2154931589       -1.3992339676        0.7337645667
 C         -0.1021794607       -0.5628562791        1.8410365818
 C          1.0376963080        0.1903701410        2.0452802274
 C          2.0907506819        0.1271243192        1.1494251118
 C          1.9896475797       -0.7052029545        0.0438882171
 N          3.0466509291       -0.7593953037       -0.8786047369
 S          4.6100688457       -0.9621401865       -0.3125771311
 O          5.3367648927       -1.5584922396       -1.4125085429
 O          4.6304558863       -1.6880146022        0.9365717791
 C          5.2015756629        0.6989067575       -0.0636536231
 C          5.1260068718        1.5832538208       -1.1217928128
 C          5.5962696657        2.8751449170       -0.9489251455
 C          6.1344018933        3.2579250100        0.2708210380
 C          6.2058316888        2.3574675553        1.3225474894
 C          5.7359467381        1.0638344500        1.1564058831
 H          5.7664681860        0.3315939632        1.9476273769
 H          6.6244113691        2.6570325951        2.2699872449
 H          6.5001242905        4.2641051546        0.4022518442
 H          5.5415055960        3.5785179038       -1.7642529606
 H          4.7036224725        1.2470448398       -2.0540311939
 H          2.8635507193       -1.3440547484       -1.6806715425
 H          2.9813981464        0.7155601755        1.2985854409
 H          1.1073250025        0.8365772681        2.9073820311
 H         -0.9283457837       -0.5071596122        2.5377370208
 C         -1.4874669580       -2.1906890139        0.5542250947
 H         -1.7259942780       -2.6629366215        1.5216806345
 C         -1.3552179144       -3.3231730786       -0.4530944540
 C         -2.5690816957       -3.9162717082       -1.1021739639
 C         -1.5887671239       -3.1338240644       -1.9207266732
 H         -0.9573220130       -3.6730025990       -2.6124788022
 H         -1.8686177095       -2.1497120922       -2.2612027131
 H         -3.5249556483       -3.4660067848       -0.8768977008
 H         -2.6110694906       -4.9874871392       -1.2302759941
 H         -0.5728882196       -4.0219409572       -0.1701143149
 O         -1.5181608302        0.0733464211       -1.3142512386
