  62
        -98.94914638
 C          1.2892165942        1.5328560043        0.5463642071
 C          2.2327078323        1.1878479419       -0.4516721920
 C          3.2017408233        0.1505174093       -0.0789097279
 C          3.1554909806       -0.4030103862        1.1461479352
 C          4.0614454519       -1.4866656538        1.6631667686
 C          3.6114929250       -2.8988958799        1.2632374971
 C          3.8496697999       -3.2668270520       -0.2019428639
 H          4.8836459289       -3.0458270443       -0.4704962269
 H          3.7131645491       -4.3469961033       -0.2850352816
 C          2.8981307142       -2.5773185495       -1.1901190686
 H          2.0190474135       -2.2080515796       -0.6549976847
 H          2.5322153011       -3.3115358845       -1.9125338310
 C          3.5277672752       -1.4349914321       -1.9887928401
 H          4.2974175159       -1.8364452737       -2.6525969084
 H          2.7482059114       -0.9839004923       -2.6084169679
 C          4.1537487169       -0.3258642253       -1.1335979431
 H          5.0813674157       -0.6764573133       -0.6818086474
 H          4.3779216808        0.5215785322       -1.7863964019
 H          2.5472707726       -3.0055275682        1.4899740452
 H          4.1599118646       -3.6073099956        1.8889354775
 H          5.0810925493       -1.3143559508        1.3175592606
 H          4.0450326526       -1.4151242277        2.7529098263
 O          2.2522979741       -0.0223865140        2.0877377744
 C          1.2701545715        0.9096030522        1.7931349792
 O          0.4490738615        1.0999950955        2.7154312150
 H         -0.3775321094       -0.0818571747       -0.1778533674
 C         -0.8873071694        0.5358597355       -0.8995030191
 C         -0.7042405961        1.9105495563       -0.8730663473
 C         -1.3504933822        2.6793244471       -1.8332923532
 C         -2.1414253770        2.0734269455       -2.7949079755
 C         -2.3203982758        0.7014525216       -2.8144167325
 C         -1.6813916726       -0.0752495741       -1.8548363322
 N         -1.8126651735       -1.4713249094       -1.8290180977
 S         -1.8212014946       -2.2831861162       -0.3672410437
 O         -0.5045359801       -2.3003036229        0.2184336704
 O         -2.3836855062       -3.5776794554       -0.6888012788
 C         -2.9716394918       -1.3693364318        0.6446446609
 C         -2.5361791925       -0.5613604507        1.6743685383
 C         -3.4713731482        0.1709894824        2.3903583015
 C         -4.8162581276        0.0839087552        2.0689058096
 C         -5.2397374651       -0.7401571222        1.0365531597
 C         -4.3106763491       -1.4708017751        0.3157947606
 H         -4.5994968256       -2.1325166743       -0.4846056671
 H         -6.2870940254       -0.8118800496        0.7916112098
 H         -5.5369141729        0.6589272966        2.6286131672
 H         -3.1310156061        0.8074559458        3.1917940213
 H         -1.4853738813       -0.5022380989        1.9129028403
 H         -2.4784014013       -1.8562338355       -2.4821208535
 H         -2.9352623685        0.2345283439       -3.5681852495
 H         -2.6304808993        2.6807987578       -3.5412292425
 H         -1.2271432397        3.7500532822       -1.8341606489
 C          0.1617170671        2.4941423371        0.2206104683
 H         -0.4529192524        2.5620958501        1.1313839087
 C          0.6957414523        3.8722768564       -0.1104019046
 C         -0.0923467036        5.0958792085        0.2465177237
 C          1.1514406451        4.7568646356        1.0099317985
 H          2.0326272047        5.3629759236        0.8631102105
 H          1.0484715666        4.3741895168        2.0152862322
 H         -1.0413126528        4.9550900166        0.7417075627
 H         -0.0634569108        5.9410836023       -0.4245903357
 H          1.2770793837        3.8830674099       -1.0247128200
 O          2.2598025322        1.7070223489       -1.5978445392
