  62
        -98.93132517
 C          2.2405070243       -0.3810520110        0.3416718571
 C          3.4887459078       -0.8374620127        0.8301260273
 C          4.6889728369       -0.5057041753        0.0382524713
 C          4.5321658125        0.1679331027       -1.1161427376
 C          5.5948195774        0.6539482114       -2.0656597752
 C          6.3320963871        1.8970929621       -1.5427397189
 C          6.7345482260        1.8343881039       -0.0716827435
 H          5.8414052027        1.6859553257        0.5381213287
 H          7.1526602142        2.8074539731        0.1994013798
 C          7.7704037569        0.7677635449        0.2757953516
 H          8.0321950072        0.9019177398        1.3285037254
 H          8.6729553763        0.9393619872       -0.3148810345
 C          7.3286581727       -0.6841753447        0.0792347209
 H          8.0546604120       -1.3178557962        0.5969137734
 H          7.3643147054       -0.9679100101       -0.9690988295
 C          5.9618138408       -1.0187159456        0.6679930259
 H          5.9330288309       -0.6970870575        1.7154364849
 H          5.8531296982       -2.1095498244        0.7009029145
 H          5.6726221205        2.7590967041       -1.6705026558
 H          7.2186964619        2.0563875048       -2.1587432704
 H          5.0860087300        0.9169238224       -2.9956466004
 H          6.2942493479       -0.1469988510       -2.2857352179
 O          3.3046309348        0.5455107981       -1.5735680319
 C          2.1347350373        0.2866809950       -0.8785424643
 O          1.1072659159        0.6916491653       -1.4532619655
 O          3.6051412263       -1.5015600479        1.8956106637
 C          1.0046668601       -0.7018866318        1.1613315134
 C         -0.0885472772       -1.2538213934        0.2825678237
 C          0.1264415660       -2.4644399503       -0.3722451102
 C         -0.8477167004       -3.0123246581       -1.1831321354
 C         -2.0662053758       -2.3757444120       -1.3427337108
 C         -2.2878620692       -1.1642900410       -0.6998905497
 C         -1.3012687844       -0.6094908215        0.1036197621
 H         -1.4944051598        0.3412960492        0.5715359507
 N         -3.5026002742       -0.4796840551       -0.8602225426
 S         -4.1144695809        0.3913139984        0.4478171501
 O         -3.5403860109        1.7131757003        0.4506200091
 O         -3.9615526070       -0.3725579504        1.6662821833
 C         -5.8369680147        0.4868549724       -0.0064693465
 C         -6.2344374920        1.4595503598       -0.9045215330
 C         -7.5661948782        1.5171081039       -1.2834916066
 C         -8.4731612518        0.6062961857       -0.7620175956
 C         -8.0599043633       -0.3631761034        0.1393527163
 C         -6.7291445590       -0.4271858921        0.5217049425
 H         -6.3637529062       -1.1574364296        1.2257025921
 H         -8.7678568486       -1.0676209278        0.5453316719
 H         -9.5092301290        0.6545531107       -1.0578232011
 H         -7.8915013473        2.2712200494       -1.9818746436
 H         -5.4954284791        2.1504728262       -1.2758781662
 H         -4.2146024132       -1.0338121886       -1.3153897373
 H         -2.8321811131       -2.8061478967       -1.9699241073
 H         -0.6630992284       -3.9489647960       -1.6876485013
 H          1.0757675563       -2.9662800131       -0.2397604459
 H          1.3293866044       -1.5091804926        1.8403012129
 C          0.5308594987        0.4407395082        2.0466657588
 C          1.4975671607        1.4329940589        2.6179164767
 C          0.5077414040        1.8638395984        1.5794528972
 H         -0.3248992332        2.4843640705        1.8791592011
 H          0.8598217624        2.0681023056        0.5803027495
 H          1.3548820934        1.7619784533        3.6361777610
 H          2.5340656808        1.3433762487        2.3267366275
 H         -0.2850673288        0.1345637459        2.6962722194
