  62
        -98.93420089
 C          1.7007875808        0.1549160604       -0.5929355696
 C          2.9084199809       -0.2390315491       -1.2224993997
 C          4.1614179908        0.2017562602       -0.5878044590
 C          4.1048815206        0.9843932792        0.5026155817
 C          5.2454520005        1.5774070184        1.2913968925
 C          6.4469394004        0.6690078180        1.5883382418
 C          6.1086792103       -0.8174680921        1.7744429004
 H          6.5587235201       -1.1695619730        2.7046379701
 H          5.0288809702       -0.9471514721        1.8672555600
 C          6.6343245104       -1.6966033611        0.6368074996
 H          7.6478279505       -1.3754260309        0.3868989801
 H          6.6966587003       -2.7284080814        0.9909692787
 C          5.7851492707       -1.7050067098       -0.6338275005
 H          4.8488288006       -2.2390786600       -0.4498115912
 H          6.3279851608       -2.2671297792       -1.3973767410
 C          5.4283213409       -0.3213591993       -1.2010231993
 H          5.2206982310       -0.4389417183       -2.2680359294
 H          6.2521644309        0.3780067605       -1.0819485285
 H          6.9142486002        1.0521263071        2.4971095523
 H          7.1834830205        0.7674854187        0.7920860621
 H          5.5937107607        2.4715903888        0.7662504134
 H          4.7969555704        1.9112973075        2.2302492227
 O          2.9213355505        1.3935146988        1.0397285218
 C          1.6952815106        0.9945762793        0.5206765412
 O          0.7177080205        1.4620768488        1.1335538915
 O          2.9393783810       -0.9232844481       -2.2792400403
 C          0.3996899609       -0.3255931689       -1.2096592003
 C         -0.5986995491        0.7998140312       -1.2926782594
 C         -0.3163429788        1.8848495820       -2.1183394683
 C         -1.1984656687        2.9426546521       -2.2182464575
 C         -2.3880149189        2.9324255715       -1.5117861677
 C         -2.6838922891        1.8503858108       -0.6904669588
 C         -1.7902805392        0.7931773106       -0.5850513496
 H         -2.0099559494       -0.0111118400        0.0955313196
 N         -3.9102929592        1.7959917702       -0.0228730791
 S         -4.2726160995        0.7496378291        1.2171583199
 O         -5.6036024596        1.1523416188        1.6236285100
 O         -3.2785444897        0.7396040780        2.2637638100
 C         -4.3559065795       -0.8478342502        0.4326729784
 C         -4.9032140493       -0.9552383789       -0.8303495519
 C         -4.9705469192       -2.2048019784       -1.4258481330
 C         -4.4973657694       -3.3204143390       -0.7520397140
 C         -3.9590212097       -3.1976550303        0.5194832362
 C         -3.8884862697       -1.9504723108        1.1197620674
 H         -3.4687276999       -1.8049269118        2.1030199576
 H         -3.5919365698       -4.0658303608        1.0436109455
 H         -4.5469210194       -4.2911640086       -1.2195481649
 H         -5.3889073591       -2.3044521874       -2.4144578832
 H         -5.2582322991       -0.0687327185       -1.3284627711
 H         -4.4606547192        2.6400581303       -0.0179168984
 H         -3.0796320888        3.7573305416       -1.5888133971
 H         -0.9609238886        3.7837378127       -2.8522613367
 H          0.6145646713        1.8936483524       -2.6690373181
 H          0.6756300710       -0.6087195280       -2.2395531805
 C         -0.1678022494       -1.5763741395       -0.5543757315
 C          0.7367624305       -2.6113624601        0.0421129877
 C         -0.1420555796       -1.7838391509        0.9288901783
 H         -0.9943257398       -2.2563299613        1.3943065077
 H          0.3071294103       -1.0122599415        1.5355882691
 H          0.4903797704       -3.6524490400       -0.1007212634
 H          1.7978597005       -2.4091476702        0.0417391581
 H         -1.0425320793       -1.9479326790       -1.0803164021
