  62
        -98.94514125
 C         -2.2685377509       -0.7297708583       -0.0233247660
 C         -3.2671256467       -0.6774135666        0.9821338522
 C         -4.1510766855        0.4943538793        0.9568210491
 C         -3.9446356975        1.4521259715        0.0346448513
 C         -4.7971032174        2.6753086466       -0.1364649917
 C         -5.9346162702        2.4243528875       -1.1365634178
 C         -6.7225760720        1.1421694374       -0.8677305347
 H         -6.0684885863        0.2820861019       -1.0282429617
 H         -7.5163451221        1.0861406533       -1.6157630570
 C         -7.3363189532        1.0564953989        0.5366784195
 H         -8.3652938651        0.7018648954        0.4477397683
 H         -7.3737319970        2.0496208636        0.9856648065
 C         -6.6155016565        0.0979970283        1.4863913584
 H         -6.4931326495       -0.8740302185        1.0021526404
 H         -7.2494367904       -0.0510683579        2.3644168727
 C         -5.2424207163        0.5627701072        1.9879567227
 H         -4.9362809134       -0.1118778933        2.7927144380
 H         -5.3221918002        1.5716398443        2.3977404212
 H         -5.5052562552        2.3587999899       -2.1390429911
 H         -6.6102673523        3.2812630797       -1.1120882010
 H         -5.2057962401        2.9649202073        0.8297051741
 H         -4.1665348375        3.4835287494       -0.5110574811
 O         -2.9516567300        1.3884452534       -0.8880175074
 C         -2.0958031363        0.2976871062       -0.9507349587
 O         -1.2519668350        0.3712677508       -1.8654795226
 H          0.7904183009       -1.2091505235       -1.6144284802
 C          1.0051789744       -1.1277113301       -0.5608134389
 C          0.0379971486       -1.4748067393        0.3689423700
 C          0.3297568710       -1.3250202302        1.7221602388
 C          1.5604906695       -0.8464837008        2.1294303443
 C          2.5229335415       -0.4972632389        1.1974509062
 C          2.2341076850       -0.6239624727       -0.1539853072
 N          3.1980813896       -0.2620603821       -1.1102258011
 S          4.0208359321        1.1868314773       -0.9106185040
 O          3.2362339555        2.1609867605       -0.1874338275
 O          4.4504006231        1.5634159950       -2.2399875014
 C          5.4527172690        0.7226124443        0.0436365963
 C          6.2320427252       -0.3202840248       -0.4178618927
 C          7.3540204114       -0.6892368874        0.3066801619
 C          7.6786177317       -0.0110962746        1.4722495951
 C          6.8889535669        1.0366677270        1.9200728940
 C          5.7644086437        1.4100066972        1.2002331730
 H          5.1177999206        2.2145531582        1.5132782526
 H          7.1428658180        1.5637515779        2.8257413346
 H          8.5519437715       -0.3007483167        2.0350670082
 H          7.9704512945       -1.5034351862       -0.0388538204
 H          5.9469488798       -0.8191998964       -1.3288644779
 H          2.8706216563       -0.3546491744       -2.0613391356
 H          3.4802955716       -0.1115802987        1.5073504966
 H          1.7742170339       -0.7403296797        3.1821579786
 H         -0.4292828870       -1.5766656229        2.4496998631
 C         -1.3393484349       -1.9331273331       -0.0407281604
 H         -1.7211577999       -2.6031329509        0.7412828620
 C         -1.3752337763       -2.6632484737       -1.3667976648
 C         -0.8048715132       -4.0462634472       -1.4562755227
 C         -2.2872957158       -3.8407192193       -1.5288369657
 H         -2.7829523120       -3.9804069678       -2.4779265719
 H         -2.8863146620       -4.1292305569       -0.6775969537
 H         -0.3957061106       -4.4731810779       -0.5532965230
 H         -0.2804722549       -4.3311816106       -2.3554767860
 H         -1.2595307846       -2.0090468690       -2.2224635644
 O         -3.4129742175       -1.5721045579        1.8567591880
