  62
        -98.94294044
 C         -1.9855191523       -1.0396033904        0.3892992308
 C         -2.5940594957        0.0039560160        1.1352284293
 C         -4.0174591197        0.2448472871        0.8784992961
 C         -4.6732404830       -0.5272902729       -0.0064296845
 C         -6.1331306563       -0.4317693796       -0.3576812160
 C         -6.4531102248        0.6295057045       -1.4191236022
 C         -6.3568896243        2.0783540381       -0.9395849062
 H         -6.8157878585        2.7021463115       -1.7092162656
 H         -6.9455789325        2.1989420609       -0.0296573399
 C         -4.9232267570        2.5706206739       -0.6962602748
 H         -4.2172344096        1.8995186665       -1.1912129810
 H         -4.7949587866        3.5572644829       -1.1471902426
 C         -4.5360008728        2.6939072770        0.7776225370
 H         -3.4911504344        3.0112537184        0.8321828975
 H         -5.1464764893        3.4642841916        1.2542762478
 C         -4.6780389136        1.3933314534        1.5790951268
 H         -4.1783535955        1.5277033092        2.5417545367
 H         -5.7307070581        1.1751077527        1.7587665011
 H         -5.7863986047        0.4831436323       -2.2719708582
 H         -7.4749800474        0.4500306436       -1.7610240985
 H         -6.4223868931       -1.4091154633       -0.7498632668
 H         -6.7137689244       -0.2330713552        0.5436345131
 O         -4.0626611581       -1.5305736861       -0.6861954846
 C         -2.7094935252       -1.8011491403       -0.5291077890
 O         -2.3073448341       -2.7325308587       -1.2522394544
 O         -1.9761285894        0.6953171091        1.9895592578
 C         -0.5078908659       -1.2889832907        0.6453228071
 C          0.3433285268       -0.6402302746       -0.4203396133
 C          0.3344838483       -1.0914086458       -1.7370423321
 C          1.1125479908       -0.4689188336       -2.6952281350
 C          1.9266884047        0.5990830724       -2.3595292206
 C          1.9429229168        1.0582584535       -1.0486462583
 C          1.1489557020        0.4407946578       -0.0908669248
 H          1.1604319831        0.8205392532        0.9200453190
 N          2.7596937114        2.1430635021       -0.6762014003
 S          3.8400727919        1.9345814411        0.5858320229
 O          3.1278509026        1.7688075790        1.8259344361
 O          4.7324018234        3.0687920310        0.5002103272
 C          4.7143586251        0.4379520063        0.1651656645
 C          4.1810090307       -0.7799706013        0.5365284782
 C          4.8197225011       -1.9416213030        0.1328105630
 C          5.9751268329       -1.8658327052       -0.6296590491
 C          6.5016099071       -0.6345527164       -0.9903322809
 C          5.8633227481        0.5301694371       -0.5961096328
 H          6.2395104687        1.5080851700       -0.8499125906
 H          7.4027118713       -0.5794072083       -1.5796850137
 H          6.4684483160       -2.7725503035       -0.9423954038
 H          4.4080681021       -2.8978162823        0.4132464005
 H          3.2829710657       -0.8001250482        1.1315825877
 H          3.2288803851        2.5836417581       -1.4552246181
 H          2.5374768032        1.0809989514       -3.1080255501
 H          1.0906812609       -0.8240130905       -3.7143370402
 H         -0.3060918083       -1.9171984740       -2.0046391603
 H         -0.2961589548       -0.7765209317        1.5942136724
 C         -0.1664514225       -2.7566591987        0.8093230140
 C          1.0231605886       -3.1412497173        1.6345705990
 C         -0.3609941129       -3.4044038312        2.1458395198
 H         -0.7190045285       -4.4223752669        2.1772937501
 H         -0.7335389094       -2.7866522853        2.9504522730
 H          1.6202503002       -3.9819240009        1.3169964313
 H          1.5871567801       -2.3482750281        2.1031861632
 H         -0.3896547897       -3.3540966385       -0.0643747991
