  62
        -98.94467714
 C         -2.5734253837        0.1769897074        0.3569233245
 C         -2.1557193790        0.7149410014       -0.8848373605
 C         -1.6814307638        2.1056949609       -0.8522588732
 C         -1.6532138153        2.7661229748        0.3191584878
 C         -1.1762149815        4.1780413664        0.5011304415
 C          0.3145650058        4.2331480033        0.8584494285
 C          1.2089366873        3.4118449909       -0.0707528599
 H          2.2423175456        3.5818230151        0.2421145802
 H          1.0085918308        2.3476221871        0.0784577269
 C          1.0642954407        3.7486997461       -1.5613633967
 H          2.0618367166        3.7989389012       -2.0025959491
 H          0.6053556228        4.7318836026       -1.6780611061
 C          0.2750858653        2.7141455218       -2.3666289074
 H          0.6501006290        1.7142910727       -2.1341839282
 H          0.4551003762        2.8987655869       -3.4293704312
 C         -1.2440426253        2.7188729569       -2.1520931982
 H         -1.6294636825        3.7367784445       -2.2484884109
 H         -1.6928309980        2.1034848552       -2.9373523229
 H          0.6325264997        5.2777967937        0.8419410955
 H          0.4429244804        3.8524276900        1.8746867960
 H         -1.3608931038        4.7358259048       -0.4150624283
 H         -1.7503448076        4.6287960332        1.3130308698
 O         -2.0460890198        2.2094338898        1.4953138862
 C         -2.4897614822        0.8991052941        1.5454309704
 O         -2.7885546983        0.4990409671        2.6917608221
 O         -2.1972998310        0.0736749476       -1.9669539662
 C         -3.0402732259       -1.2657580159        0.4403013657
 C         -1.9145586999       -2.1791726916        0.0180533353
 C         -2.0814382235       -3.2905165577       -0.7971595708
 C         -0.9945736212       -4.0725498933       -1.1535121645
 C          0.2805766061       -3.7580066419       -0.7196679795
 C          0.4532752586       -2.6573858008        0.1087449617
 C         -0.6366675899       -1.8947222507        0.4849819873
 H         -0.4819004468       -1.0410951302        1.1335670287
 N          1.7669324562       -2.2743057269        0.5186920833
 S          2.0539539366       -0.6180162660        0.4870134958
 O          1.7252674784        0.0040701273        1.7565112867
 O          1.4271421938       -0.0817330284       -0.6924442334
 C          3.8243156133       -0.6172021597        0.2737236647
 C          4.3261211331       -1.0345023211       -0.9441964466
 C          5.6988189910       -1.0744913407       -1.1262051612
 C          6.5435946613       -0.6987419212       -0.0918833903
 C          6.0256738338       -0.2804122335        1.1240132699
 C          4.6524861147       -0.2397354915        1.3119556971
 H          4.2040882838        0.0823426841        2.2382605390
 H          6.6839298398        0.0133821625        1.9257883360
 H          7.6121108190       -0.7308495051       -0.2352992106
 H          6.1048013090       -1.3978734903       -2.0711898822
 H          3.6289621686       -1.3095211241       -1.7186220013
 H          2.0428151147       -2.6659768218        1.4085337232
 H          1.1353884253       -4.3449921115       -1.0133083966
 H         -1.1433292624       -4.9290550479       -1.7932239173
 H         -3.0643543314       -3.5392042927       -1.1634914048
 H         -3.2483641759       -1.4547197314        1.5047194532
 C         -4.3150228831       -1.4688815150       -0.3511354508
 C         -5.3083070264       -2.5080300609        0.0723062129
 C         -5.6179330570       -1.0543300503        0.2615069375
 H         -6.3623043075       -0.5956995487       -0.3716432243
 H         -5.5859830675       -0.6478264665        1.2622847441
 H         -5.8463608481       -3.0483577351       -0.6917567664
 H         -5.0772092026       -3.0930364495        0.9497475278
 H         -4.1784430242       -1.2863305176       -1.4105387368
