  62
        -98.94432064
 C          2.6322176009        1.1050222119        0.1944367490
 C          2.7248249289        0.3045511746       -0.9701553834
 C          3.5539188546       -0.9011212707       -0.8468063781
 C          4.1793236483       -1.1692614313        0.3139095396
 C          5.0784237817       -2.3454064254        0.5840250785
 C          4.3304865197       -3.6252631186        0.9823485353
 C          3.5701773413       -4.3142038566       -0.1517114511
 H          4.2416646508       -4.4669004246       -0.9970137918
 H          3.2755657639       -5.3002148575        0.2130390283
 C          2.3141013270       -3.5646658478       -0.6183835240
 H          1.4833150846       -4.2676703695       -0.7117392527
 H          2.0268124968       -2.8304737861        0.1383360055
 C          2.4622766687       -2.8548968598       -1.9643981676
 H          2.6173737094       -3.5945523245       -2.7527694140
 H          1.5303410346       -2.3243824173       -2.1765254767
 C          3.6084451962       -1.8361430823       -2.0169072176
 H          4.5688374089       -2.3496836573       -2.0521302582
 H          3.4945889539       -1.2388598816       -2.9246153244
 H          3.6382138691       -3.3872396164        1.7936588857
 H          5.0708170651       -4.3267156024        1.3738542808
 H          5.6971353609       -2.5418864634       -0.2918743246
 H          5.7289559267       -2.0554898523        1.4120171582
 O          4.0738287552       -0.3655332568        1.4068653513
 C          3.2799062803        0.7708557935        1.3823836696
 O          3.2320050827        1.3883707505        2.4670705865
 H          0.3398755414        0.3026276677        1.0645065669
 C         -0.2383069450        0.9116700669        0.3787130943
 C          0.3559916303        2.0279980711       -0.1971170716
 C         -0.4045011067        2.8090668134       -1.0573739650
 C         -1.7137007882        2.4640027581       -1.3459851042
 C         -2.2926586900        1.3401777262       -0.7868117473
 C         -1.5463647808        0.5589550849        0.0859173369
 N         -2.1257103458       -0.5906450592        0.6548672135
 S         -3.5818209850       -0.4030103421        1.4734202252
 O         -3.7020516546        0.9214817944        2.0382397873
 O         -3.6355397335       -1.5069982072        2.4070902433
 C         -4.8176683622       -0.6453892810        0.2153357278
 C         -5.7758401213        0.3249123606       -0.0035129654
 C         -6.7353977617        0.1100563786       -0.9807278310
 C         -6.7195419709       -1.0645685734       -1.7171135126
 C         -5.7513119133       -2.0299312869       -1.4833789623
 C         -4.7903010602       -1.8223645635       -0.5068859988
 H         -4.0232843684       -2.5476579644       -0.2919831712
 H         -5.7418443499       -2.9418798938       -2.0583387054
 H         -7.4662312811       -1.2290636052       -2.4778291050
 H         -7.4890212943        0.8589776079       -1.1637398727
 H         -5.7442123665        1.2249309565        0.5894982136
 H         -1.4817213348       -1.1310713225        1.2142169085
 H         -3.3085403175        1.0631541833       -1.0164903740
 H         -2.2901163494        3.0776689497       -2.0212012079
 H          0.0293642105        3.6877975960       -1.5053611986
 C          1.7810322627        2.3605894430        0.1769745948
 H          1.7780795737        2.7427889884        1.2091291610
 C          2.4129515140        3.4010358872       -0.7253160453
 C          2.2546785140        4.8608120679       -0.4271270899
 C          3.5766820519        4.1903110774       -0.2083654246
 H          4.3892750974        4.4143267725       -0.8829223739
 H          3.8932979927        3.9966671878        0.8066034401
 H          2.1630619045        5.5494459148       -1.2535053797
 H          1.6767937876        5.1344968619        0.4428529847
 H          2.4417327926        3.0872451636       -1.7623628392
 O          2.1474872994        0.5789965827       -2.0530060962
