  62
        -98.94387132
 C         -1.7946391705       -1.1582692307        0.3956753896
 C         -1.9921680704       -0.2151009610       -0.6410997606
 C         -3.3848160704       -0.0259870211       -1.0752824107
 C         -4.3604826704       -0.7527518409       -0.5004476605
 C         -5.8225704004       -0.6290551210       -0.8158997706
 C         -6.5063678804        0.3892398893        0.1069165291
 C         -5.7689644604        1.7246907493        0.2049966788
 H         -6.3571753204        2.3746583195        0.8564027686
 H         -4.8053960804        1.5660543994        0.6947995188
 C         -5.5401550604        2.4235108590       -1.1424781614
 H         -6.2130467004        2.0093767988       -1.8942093213
 H         -5.7867061904        3.4818739290       -1.0346658417
 C         -4.1011573404        2.3525745188       -1.6576255514
 H         -4.0025915604        3.0553439286       -2.4894858716
 H         -3.4125483304        2.6785483090       -0.8734371415
 C         -3.6385995604        0.9798794686       -2.1625140410
 H         -2.6790214104        1.1202907885       -2.6693044410
 H         -4.3573178404        0.5930485285       -2.8880585809
 H         -7.5214467804        0.5580432392       -0.2569143910
 H         -6.5712897605       -0.0404572904        1.1091608092
 H         -6.2884945205       -1.6054720309       -0.6731009103
 H         -5.9399246704       -0.3295897512       -1.8554625907
 O         -4.1278632905       -1.6623886106        0.4800055897
 C         -2.8469989505       -1.8780178405        0.9614360098
 O         -2.7760702505       -2.7205271203        1.8788158300
 O         -1.0570866804        0.4332723189       -1.1797013008
 C         -0.3964481605       -1.4223852606        0.9248217397
 C          0.2184063095       -0.1448015104        1.4420338994
 C         -0.5064382605        0.6300449498        2.3446811092
 C          0.0242242595        1.7951140300        2.8617949588
 C          1.2889038095        2.2154898598        2.4873914288
 C          2.0234613995        1.4493253296        1.5920295290
 C          1.4903771395        0.2720128395        1.0829520493
 H          2.0778293995       -0.3091052007        0.3931134695
 N          3.3256023796        1.8253464595        1.2246149389
 S          3.7837054396        1.7829846990       -0.3887905211
 O          4.9571060696        2.6310567690       -0.4416234113
 O          2.6999910596        2.1490049188       -1.2686760212
 C          4.2898883096        0.1017129089       -0.6782672706
 C          3.7740813596       -0.5860992514       -1.7585993804
 C          4.2116613496       -1.8793541114       -1.9994610701
 C          5.1519614095       -2.4576292912       -1.1597748999
 C          5.6586195595       -1.7528395509       -0.0780052901
 C          5.2284604995       -0.4585171809        0.1658863096
 H          5.6030813295        0.1244026594        0.9904507394
 H          6.3873037395       -2.2081175408        0.5730436701
 H          5.4886167795       -3.4647983813       -1.3495421196
 H          3.8157222696       -2.4290541417       -2.8387977799
 H          3.0345593196       -0.1011148415       -2.3766996206
 H          3.6503265496        2.6768621796        1.6607058787
 H          1.7032918595        3.1294334899        2.8857982785
 H         -0.5515742705        2.3857473002        3.5586838387
 H         -1.4964497505        0.3031787799        2.6340147392
 H         -0.5232651805       -2.1042973703        1.7788271799
 C          0.4425296695       -2.1170474809       -0.1272790901
 C          1.5361182295       -3.0538600608        0.2869522602
 C          0.2772620495       -3.5933302309       -0.3210689097
 H          0.3145988495       -3.9880446312       -1.3251268096
 H         -0.4293034405       -4.0997561507        0.3206053105
 H          2.4424825995       -3.0802489109       -0.2985046698
 H          1.6889810295       -3.2015393505        1.3452105902
 H          0.5908144995       -1.5088511511       -1.0126813702
