  62
        -98.94093176
 C         -1.8559301196       -1.3302579208        0.6408805919
 C         -1.8005264964        0.0049803033        1.1186355601
 C         -3.0204570608        0.8038368597        0.9682956504
 C         -4.1242757469        0.2364844051        0.4494319928
 C         -5.4657085641        0.8975756709        0.2815378342
 C         -5.6053489192        1.7179902748       -1.0078483271
 C         -4.8187458401        3.0289425099       -1.0303565570
 H         -5.1715640604        3.5997919102       -1.8915792374
 H         -5.0549451950        3.6082760208       -0.1372419143
 C         -3.2987673334        2.8488088199       -1.1449934315
 H         -3.0772872076        1.8347134913       -1.4857702655
 H         -2.9069411403        3.5319567894       -1.9017567594
 C         -2.5256746526        3.1146915433        0.1467917702
 H         -2.6234620507        4.1670460040        0.4225073113
 H         -1.4700567505        2.9093180774       -0.0472818084
 C         -2.9668180168        2.2548971686        1.3391036011
 H         -3.9356896220        2.5910068443        1.7081703119
 H         -2.2306892931        2.3663006157        2.1391868515
 H         -6.6654096955        1.9512041976       -1.1322285004
 H         -5.3009613162        1.0954537376       -1.8524195155
 H         -6.2062709536        0.0950275964        0.2603400418
 H         -5.6687806401        1.5345030361        1.1430988546
 O         -4.1485008941       -1.0539708416        0.0284668386
 C         -3.0100907900       -1.8565977055        0.0595923732
 O         -3.1856243341       -2.9809536515       -0.4427359186
 O         -0.7738235609        0.5011365074        1.6539526652
 C         -0.5687949357       -2.1270496736        0.7554972549
 C          0.3516755039       -1.7829930398       -0.3886268308
 C         -0.1137646144       -1.7562019520       -1.6997485678
 C          0.7391993356       -1.4285868255       -2.7371671760
 C          2.0629313528       -1.1102397166       -2.4870342872
 C          2.5390667376       -1.1351895276       -1.1811207408
 C          1.6814219573       -1.4775579814       -0.1432013674
 H          2.0636552570       -1.4962418897        0.8657322189
 N          3.8845435278       -0.8486064450       -0.9107975427
 S          4.3591041501        0.0602566735        0.4109672720
 O          5.7666586490        0.3006869560        0.1822823079
 O          4.0207549270       -0.6298238954        1.6288654090
 C          3.4658590240        1.5972833295        0.2774147781
 C          2.2238199389        1.7344688816        0.8620511084
 C          1.5444014849        2.9331951034        0.7110005223
 C          2.1073049584        3.9657011597       -0.0214540013
 C          3.3568913189        3.8113897375       -0.6041102537
 C          4.0426147879        2.6175291280       -0.4559837177
 H          5.0219322816        2.4610616814       -0.8786758413
 H          3.7961783561        4.6165807266       -1.1708221608
 H          1.5708014529        4.8946106466       -0.1352291621
 H          0.5736877680        3.0343898546        1.1697504853
 H          1.7846927472        0.9257038931        1.4226620761
 H          4.4314556949       -0.6047656230       -1.7236579627
 H          2.7253917012       -0.8493780268       -3.2981779818
 H          0.3689246277       -1.4148101436       -3.7512157432
 H         -1.1483122792       -2.0012711890       -1.8931371237
 H         -0.0865707267       -1.7632491171        1.6782010443
 C         -0.7713804898       -3.6252923845        0.9185865439
 C         -0.4531634807       -4.6201942215       -0.1526020367
 C          0.4191309722       -4.5270192427        1.0611765833
 H          0.3810504967       -5.3215886974        1.7909546326
 H          1.3968846525       -4.0831803045        0.9432228002
 H         -1.1131267443       -5.4674308743       -0.2581987388
 H         -0.0629946273       -4.2548674889       -1.0895275174
 H         -1.6295837160       -3.8526163757        1.5421323874
