  62
        -98.93895925
 C         -2.0239731460       -1.0581171731       -0.2393416023
 C         -2.4139147065       -0.3112181640        0.9018950695
 C         -2.6686979874        1.1187083010        0.7002670216
 C         -2.4688538201        1.6495413245       -0.5191708163
 C         -2.7080222182        3.0871031807       -0.8792975169
 C         -4.1407044411        3.3063100631       -1.3854746130
 C         -5.2135203781        2.6983778324       -0.4819467089
 H         -6.1836374167        2.9382017281       -0.9223078624
 H         -5.1131542727        1.6107406599       -0.4949379405
 C         -5.1740702524        3.1926819025        0.9707336252
 H         -4.5957812649        4.1151162140        1.0321048091
 H         -6.1923209119        3.4249143416        1.2894358426
 C         -4.6150643283        2.1782662761        1.9701026273
 H         -4.8316358541        2.5396278958        2.9788357623
 H         -5.1288007658        1.2216667503        1.8472260032
 C         -3.1040028032        1.9251934022        1.8913703924
 H         -2.5666461982        2.8754326262        1.9265807477
 H         -2.8167948600        1.3373557244        2.7682239756
 H         -4.2293866616        2.8538816125       -2.3758664826
 H         -4.3106582968        4.3798853748       -1.4851393928
 H         -2.5189588075        3.7075982730       -0.0051998872
 H         -2.0036178895        3.3626896105       -1.6663219718
 O         -2.0696387338        0.9143075758       -1.5857439709
 C         -1.8274489813       -0.4529379041       -1.4811728017
 O         -1.4755958892       -0.9744823879       -2.5551366812
 H          0.5462331098       -1.2001286337       -0.6992016913
 C          0.7065435756       -1.8510136306        0.1483514268
 C         -0.3368000796       -2.6237230817        0.6378066049
 C         -0.0989039841       -3.4554322665        1.7254231750
 C          1.1525266540       -3.5011310621        2.3142693195
 C          2.1799221481       -2.7025269600        1.8462546198
 C          1.9521246211       -1.8691987109        0.7563356423
 N          2.9689076104       -1.0433242791        0.2497035288
 S          2.5186176663        0.4774923139       -0.3398062188
 O          1.5018120050        1.0592697025        0.5075258874
 O          2.2053429594        0.3557774514       -1.7412574625
 C          4.0588584205        1.3583399322       -0.1517672638
 C          4.2461637133        2.1703266537        0.9507461106
 C          5.4592428167        2.8235720040        1.1039798995
 C          6.4599529639        2.6515771483        0.1594473964
 C          6.2572385798        1.8332331124       -0.9421476875
 C          5.0461650096        1.1788945646       -1.1025444745
 H          4.8374280789        0.5418707917       -1.9462705350
 H          7.0363067663        1.7037468208       -1.6758704125
 H          7.4028377444        3.1607016193        0.2813181598
 H          5.6179918280        3.4627300152        1.9575415800
 H          3.4358821154        2.2781812622        1.6540438876
 H          3.7712153675       -0.9846990897        0.8623802854
 H          3.1491494423       -2.7178291579        2.3209118314
 H          1.3240132911       -4.1489536374        3.1603768893
 H         -0.9089428653       -4.0481249819        2.1241490789
 C         -1.7066423676       -2.5223582451        0.0124335713
 H         -2.4340347225       -2.8526996017        0.7727388233
 C         -1.8719080562       -3.4258553201       -1.1982240109
 C         -0.7144955522       -3.9422276998       -1.9934567597
 C         -1.4906634243       -4.8746772210       -1.1154600847
 H         -2.1368250979       -5.6035121304       -1.5803916061
 H         -1.0151486778       -5.2152577393       -0.2084147665
 H         -0.8333230817       -4.0045191527       -3.0641598366
 H          0.2791967180       -3.6527176222       -1.6873694824
 H         -2.7691223416       -3.1881794426       -1.7598066738
 O         -2.5493055519       -0.8310954135        2.0436010602
