  62
        -98.93929261
 C         -2.2020556492       -0.6929760584        0.5206297706
 C         -1.9084327584        0.0672249688       -0.6347874637
 C         -1.7643956622        1.5237902705       -0.4509497442
 C         -1.9555784781        2.0439266857        0.7753597090
 C         -1.9070157705        3.4932336317        1.1785787321
 C         -3.1532409172        4.2781960690        0.7303239483
 C         -3.6616939702        3.9463105151       -0.6709253682
 H         -3.8461640380        2.8726045148       -0.7394091637
 H         -4.6225292235        4.4504794643       -0.8034505283
 C         -2.7478304421        4.3767136407       -1.8155775079
 H         -3.2465683644        4.1090961073       -2.7504208035
 H         -2.6374976234        5.4633890854       -1.7953853032
 C         -1.3515946890        3.7531385580       -1.8232144677
 H         -0.7236366913        4.1987027420       -1.0562339920
 H         -0.8883076677        3.9976354453       -2.7837771224
 C         -1.3233577000        2.2317347828       -1.7079734190
 H         -1.9173147243        1.7973771340       -2.5201313101
 H         -0.2946448004        1.8860071444       -1.8765779986
 H         -3.9583579610        4.0548409006        1.4342257700
 H         -2.9321311781        5.3445339628        0.7971694829
 H         -1.8541281418        3.5148227988        2.2694359199
 H         -0.9962998584        3.9463929653        0.7968431587
 O         -2.2875757323        1.2756323961        1.8538760971
 C         -2.3701063601       -0.1003595611        1.7687311062
 O         -2.6065036943       -0.6756364937        2.8529725519
 H          0.2054803066       -1.2435885049        0.9158880745
 C          0.2399096612       -2.0602434541        0.2086524126
 C         -0.9359861182       -2.7019215345       -0.1581600522
 C         -0.8598098388       -3.7622200949       -1.0523402752
 C          0.3594279113       -4.1368796864       -1.5904133151
 C          1.5183748808       -3.4563433069       -1.2661515222
 C          1.4551643616       -2.4072197641       -0.3557274529
 N          2.6126082092       -1.6970178906        0.0162896992
 S          2.4617188309       -0.0348538809        0.2854951621
 O          1.9512346841        0.1785371643        1.6180248817
 O          1.7323740419        0.5916054652       -0.7931517875
 C          4.1790521438        0.4448280570        0.2265050863
 C          4.9781356486        0.1681728235        1.3199588204
 C          6.3202401618        0.5098274133        1.2723337877
 C          6.8384005375        1.1189173844        0.1387274320
 C          6.0239400294        1.3922189426       -0.9497539575
 C          4.6807220217        1.0515761377       -0.9091400741
 H          4.0069604084        1.2498503385       -1.7273542550
 H          6.4280603781        1.8687592339       -1.8282985871
 H          7.8830845259        1.3846615613        0.1046804199
 H          6.9555801173        0.3013079364        2.1179065049
 H          4.5276353272       -0.2971027547        2.1812215703
 H          3.3952165789       -1.8910943619       -0.5947494862
 H          2.4626823474       -3.7298904695       -1.7118825235
 H          0.4038227287       -4.9577827393       -2.2900333662
 H         -1.7574352552       -4.2853274283       -1.3394355495
 C         -2.2351816804       -2.2075223129        0.4339089436
 H         -2.3075547762       -2.5719484741        1.4699749155
 C         -3.4561150728       -2.6705554587       -0.3348665013
 C         -4.1216981142       -3.9693272467        0.0056519064
 C         -4.7852596394       -2.6726403970        0.3565856640
 H         -5.6577184433       -2.3686968947       -0.2019752984
 H         -4.8013811748       -2.3664381663        1.3927494439
 H         -4.5443195541       -4.5574119278       -0.7950218206
 H         -3.6983804647       -4.5528278466        0.8092609885
 H         -3.4308518378       -2.3602610694       -1.3732868900
 O         -1.7728665037       -0.4467278650       -1.7770839035
