  62
        -98.94060796
 C          2.1995603857        1.1020635200        0.4229649776
 C          2.5046541173        0.2524368190       -0.6684689725
 C          3.3322667744       -0.9209300505       -0.3512222513
 C          3.6881542060       -1.1738260995        0.9202665406
 C          4.4894435904       -2.3526899201        1.4017673444
 C          6.0082181025       -2.1702624725        1.2756631769
 C          6.5548552215       -2.2356059156       -0.1509733774
 H          7.6413080202       -2.3107393327       -0.0743298994
 H          6.1986234076       -3.1463266743       -0.6334669815
 C          6.2040621859       -1.0193456778       -1.0193074371
 H          5.8836047273       -0.1949946919       -0.3780696811
 H          7.0961433858       -0.6827666979       -1.5521160853
 C          5.1221190240       -1.2799305072       -2.0673792330
 H          5.4832975291       -2.0120213785       -2.7929557913
 H          4.9279209374       -0.3454827991       -2.6000210724
 C          3.7917207625       -1.7811390028       -1.4900313077
 H          3.0334171957       -1.7271443991       -2.2752841308
 H          3.8867814083       -2.8184194874       -1.1691743529
 H          6.2833182160       -1.2150189436        1.7286576150
 H          6.4802983076       -2.9634736629        1.8598004155
 H          4.2437630138       -2.4826502828        2.4580342653
 H          4.1821431497       -3.2491914295        0.8621434993
 O          3.3257465812       -0.3651824084        1.9513017162
 C          2.6004499653        0.7919166146        1.7263087192
 O          2.3752314105        1.4598300754        2.7552914679
 H         -0.0340673720        0.6232145117       -1.1812969843
 C         -0.6502216069        1.1061970949       -0.4364852112
 C         -0.0827614860        2.0624827273        0.3955188810
 C         -0.8850953228        2.6711405551        1.3523211116
 C         -2.2207799812        2.3272150672        1.4718773229
 C         -2.7808299923        1.3719399045        0.6426706149
 C         -1.9856712666        0.7559646249       -0.3150954919
 N         -2.5459576179       -0.2274003300       -1.1572749970
 S         -3.1686028342       -1.5838548774       -0.3794759448
 O         -2.4893832300       -1.8320722191        0.8725919029
 O         -3.1205013306       -2.6471915584       -1.3594612518
 C         -4.8689760857       -1.1494440825       -0.0798987079
 C         -5.3722163004       -1.1786339498        1.2057461426
 C         -6.7013897960       -0.8425908405        1.4121760484
 C         -7.4983787458       -0.4858952581        0.3351868143
 C         -6.9776035496       -0.4632612442       -0.9503053280
 C         -5.6504044868       -0.7992521107       -1.1638816731
 H         -5.2062993998       -0.7980177547       -2.1452276507
 H         -7.6005313283       -0.1849211093       -1.7849583820
 H         -8.5316864056       -0.2237604964        0.4988612147
 H         -7.1077214751       -0.8595214982        2.4106829785
 H         -4.7119157725       -1.4556755067        2.0120790363
 H         -1.9107542178       -0.5194709249       -1.8878837752
 H         -3.8186080193        1.0957292071        0.7353137975
 H         -2.8315667551        2.8053508609        2.2222635756
 H         -0.4496469846        3.4015294133        2.0184685719
 C          1.3860984793        2.3809890797        0.2857711490
 H          1.6590359434        2.9888815147        1.1625193508
 C          1.7465456920        3.1857730186       -0.9559529743
 C          0.8054667709        3.4288442637       -2.0941256651
 C          1.1466008946        4.5460871773       -1.1577908881
 H          1.7809922908        5.3457766659       -1.5085836168
 H          0.3859554429        4.8580182734       -0.4578839966
 H          1.2214168492        3.4370480288       -3.0901626483
 H         -0.1851605372        3.0056883202       -2.0412310122
 H          2.7935385343        3.0744234982       -1.2186722949
 O          2.1135759010        0.4368728044       -1.8508518897
