  62
        -98.94851200
 C         -0.9264505702       -1.2515284913        0.0493359792
 C         -1.8673466302       -0.9735233211        1.0674785992
 C         -2.5972813797        0.2914949391        0.9336297593
 C         -2.3128236294        1.1202469492       -0.0873030605
 C         -2.9691159289        2.4478670695       -0.3540794603
 C         -4.2964160889        2.3441709901       -1.1185000104
 C         -5.4758566091        1.8042302603       -0.3088502906
 H         -5.5680511990        2.3700230202        0.6188207295
 H         -6.3781804190        1.9900601108       -0.8947819107
 C         -5.3945628997        0.3043630303        0.0073956191
 H         -4.6661036898       -0.1694690299       -0.6544832609
 H         -6.3612492598       -0.1632767694       -0.1926244810
 C         -5.0273167699       -0.0186800701        1.4557852891
 H         -4.9621400603       -1.1048156501        1.5593124289
 H         -5.8159575098        0.3359986901        2.1231934291
 C         -3.6916526597        0.5804528493        1.9161314393
 H         -3.7929049094        1.6547270894        2.0705066795
 H         -3.4149941000        0.1173726491        2.8669077193
 H         -4.5522372985        3.3484035202       -1.4641384903
 H         -4.1426206690        1.7172158502       -1.9995318505
 H         -3.1275751088        2.9753781994        0.5870561598
 H         -2.2684679086        3.0229430693       -0.9615190102
 O         -1.3605410394        0.8416122790       -1.0162255105
 C         -0.6567881598       -0.3537390912       -0.9837712406
 O          0.1645234602       -0.4924349914       -1.9086418906
 O         -2.0898009205       -1.7477698712        2.0387241590
 C         -0.1642400307       -2.5610411816        0.0893860690
 C          1.3256428694       -2.3310510221        0.0479918592
 C          2.2006925792       -3.1954688323       -0.5994294809
 C          3.5623607292       -2.9490951228       -0.5949199007
 C          4.0788356796       -1.8343007530        0.0392198795
 C          3.2114556598       -0.9659382029        0.6931023496
 C          1.8515985997       -1.2278472524        0.7069689794
 H          1.1929285599       -0.5503952722        1.2304620095
 N          3.6973519402        0.1778781369        1.3462828698
 S          2.8102160907        1.5850321672        1.3940982300
 O          3.7795104110        2.5955424268        1.7691853102
 O          1.6873888006        1.4480479874        2.2901017099
 C          2.2341522709        1.9460241876       -0.2563076100
 C          2.9176761509        1.4946216976       -1.3662114700
 C          2.4744322711        1.8704606280       -2.6237250600
 C          1.3773460114        2.7054306084       -2.7513666999
 C          0.7100783115        3.1618773284       -1.6268598999
 C          1.1357786612        2.7739217480       -0.3678306699
 H          0.6301275013        3.0868933281        0.5328245801
 H         -0.1427076483        3.8145778587       -1.7270766499
 H          1.0346432116        2.9963445587       -3.7318211999
 H          2.9855288910        1.5055821179       -3.4998757200
 H          3.7704108506        0.8455250273       -1.2538700401
 H          4.6826713003        0.3612822565        1.2262286999
 H          5.1396153897       -1.6348191034        0.0324316396
 H          4.2299951190       -3.6289186629       -1.1017653208
 H          1.8150486389       -4.0624862721       -1.1101821811
 H         -0.4131804709       -3.0154079617        1.0611122590
 C         -0.6553783909       -3.4788044012       -1.0137144211
 C         -0.7155305414       -4.9617373712       -0.8036421114
 C         -1.9799472112       -4.1592268308       -0.8459040214
 H         -2.6261732411       -4.2532945604       -1.7057130014
 H         -2.5087292112       -3.9856894208        0.0801643186
 H         -0.4958113516       -5.6105687012       -1.6381542115
 H         -0.3942400817       -5.3458401715        0.1528243286
 H         -0.4040260407       -3.1086389111       -2.0015603311
