  62
        -98.94066852
 C          2.2769916000        0.9958642298       -0.2964109605
 C          3.6026120901        1.1639816997        0.1738119993
 C          4.5906085899        0.2088431594       -0.3383930105
 C          4.2104333897       -0.7363577608       -1.2171888502
 C          5.1038935094       -1.7720271611       -1.8443889700
 C          5.3130298693       -3.0202421609       -0.9759243696
 C          6.2109516695       -2.8191855907        0.2454819102
 H          6.4446172394       -3.8110982106        0.6372406305
 H          7.1503953795       -2.3627024209       -0.0675228300
 C          5.5780227598       -1.9827016402        1.3663294700
 H          4.4964659898       -1.9340494801        1.2182024601
 H          5.7467124298       -2.4743387700        2.3270895002
 C          6.1268868900       -0.5605584103        1.4829110395
 H          5.5857789202       -0.0493348099        2.2830986794
 H          7.1825966600       -0.5969762804        1.7602454094
 C          5.9858228900        0.2781614294        0.2056272193
 H          6.7036888398       -0.0534169610       -0.5439080007
 H          6.1941115702        1.3212990794        0.4550451190
 H          4.3357577593       -3.3882977706       -0.6544470694
 H          5.7642892891       -3.7866493411       -1.6103010695
 H          6.0698911395       -1.3271181813       -2.0842350402
 H          4.6196202693       -2.0767992813       -2.7746052198
 O          2.9303276296       -0.8515905307       -1.6620304700
 C          1.9272532298       -0.0137234604       -1.1929396601
 O          0.7973902497       -0.2663249004       -1.6544663499
 O          3.9419921204        2.0666565999        0.9846693790
 C          1.1954818202        1.9212897201        0.2349053694
 C          0.2297584002        1.1079939405        1.0611374197
 C          0.7064987503        0.5029052608        2.2225029498
 C         -0.1203201398       -0.2826606889        3.0001137302
 C         -1.4384315798       -0.4870498688        2.6303818104
 C         -1.9267099599        0.1168015910        1.4781942103
 C         -1.0955229599        0.9172929306        0.7046866499
 H         -1.4928534199        1.3628757704       -0.1908536902
 N         -3.2788805600       -0.0439140589        1.1171269405
 S         -3.6830445402       -0.3592024894       -0.4936689294
 O         -3.0288272204       -1.5666009396       -0.9473540091
 O         -3.4786256801        0.8313188804       -1.2772466098
 C         -5.4328468502       -0.6543867190       -0.3024238391
 C         -5.9050735104       -1.9524499189       -0.2635177886
 C         -7.2627327204       -2.1679330787       -0.0850085484
 C         -8.1202497002       -1.0871793685        0.0539578114
 C         -7.6318572900        0.2104059714        0.0115983809
 C         -6.2758237200        0.4323685711       -0.1677626593
 H         -5.8517250999        1.4216199111       -0.2155471997
 H         -8.3020952399        1.0482045115        0.1170028707
 H         -9.1761822103       -1.2572177183        0.1931669715
 H         -7.6450835606       -3.1755566586       -0.0553459181
 H         -5.2016989406       -2.7607145691       -0.3848265585
 H         -3.7420462100       -0.7226813887        1.7086902907
 H         -2.0850412499       -1.1084152685        3.2318257907
 H          0.2631793003       -0.7464764386        3.8965393003
 H          1.7405762203        0.6555807407        2.5004689397
 H          1.7166982604        2.6181408702        0.9076872691
 C          0.5440559402        2.7147172199       -0.8756917608
 C         -0.1636271695        3.9958197501       -0.5538295511
 C          1.1436602104        4.0251338797       -1.2855835613
 H          1.1447627303        4.2848107693       -2.3335593813
 H          2.0214361905        4.3586127297       -0.7514555815
 H         -1.0655136496        4.2332081501       -1.0974063411
 H         -0.1739714094        4.3124324904        0.4781783788
 H          0.1312807200        2.0888917497       -1.6593044706
