  62
        -98.94147737
 C         -1.7984962637       -1.0455192503        0.6682514030
 C         -1.9914226155        0.3414350627        0.9090091204
 C         -3.3488702062        0.8565849544        0.7067828868
 C         -4.3304791328        0.0143189191        0.3376751953
 C         -5.7760366721        0.3740610428        0.1259410009
 C         -6.0815908918        0.9420234764       -1.2667055588
 C         -5.5713006730        2.3619121325       -1.5155260545
 H         -5.9101304277        3.0145619491       -0.7103315232
 H         -6.0387301478        2.7130235861       -2.4376945218
 C         -4.0469433028        2.4695984876       -1.6625087169
 H         -3.8079902787        3.0939696190       -2.5263744995
 H         -3.6288241226        1.4795206169       -1.8592790390
 C         -3.3336150827        3.0760871406       -0.4539262337
 H         -3.6463129861        4.1149693560       -0.3278422892
 H         -2.2587913802        3.0678487378       -0.6519209404
 C         -3.5776168994        2.3294719123        0.8640862375
 H         -4.5884637220        2.5209119592        1.2237477801
 H         -2.8647724217        2.6989139363        1.6050615149
 H         -7.1674181509        0.9421400482       -1.3872509070
 H         -5.6642038262        0.2677301657       -2.0181298410
 H         -6.0910371430        1.0872847022        0.8882252560
 H         -6.3473641658       -0.5477996588        0.2545838362
 O         -4.1115131913       -1.3090829530        0.1292553306
 C         -2.8467493322       -1.8688085251        0.2568675172
 O         -2.8191487604       -3.0851193437       -0.0175366788
 O         -1.0686355579        1.1107282216        1.2876308898
 C         -0.3892321802       -1.5708248073        0.8738575417
 C          0.3811338167       -1.6423103871       -0.4230328979
 C         -0.0273350393       -2.4595965636       -1.4717087963
 C          0.7166095048       -2.5226352638       -2.6355485972
 C          1.8865061274       -1.7947240738       -2.7676450923
 C          2.3028001165       -0.9751045761       -1.7254489542
 C          1.5398862133       -0.8942189903       -0.5689664079
 H          1.8576350272       -0.2430478923        0.2306299994
 N          3.4753232577       -0.2158944508       -1.8302787241
 S          4.4521534315        0.0251996449       -0.4928282251
 O          5.7487135031        0.3468805599       -1.0497885435
 O          4.4093440065       -1.1025047513        0.4080489697
 C          3.7844652493        1.4761738434        0.2914459540
 C          3.4814355451        1.4495553357        1.6379033639
 C          2.9767815832        2.5936196858        2.2350004503
 C          2.7863621979        3.7390270325        1.4783209257
 C          3.1003421268        3.7513114585        0.1277040756
 C          3.6060622760        2.6109070201       -0.4745263450
 H          3.8642070086        2.5829238328       -1.5200529269
 H          2.9495238297        4.6449742604       -0.4563643240
 H          2.3887351670        4.6263351380        1.9451386084
 H          2.7288524259        2.5847014539        3.2843417988
 H          3.6386540223        0.5352858103        2.1890466112
 H          4.0122719087       -0.3692787622       -2.6710822811
 H          2.4730103794       -1.8583781383       -3.6717321492
 H          0.3891256334       -3.1568866210       -3.4457094641
 H         -0.9325914336       -3.0376304022       -1.3658268637
 H          0.1049471223       -0.8185066455        1.5040814602
 C         -0.3222833236       -2.9067247375        1.5891982504
 C          0.9876426746       -3.3395036875        2.1747148923
 C         -0.1405177314       -2.9365319629        3.0754497068
 H         -0.6481793259       -3.7036514869        3.6407960790
 H         -0.0692831587       -1.9895992108        3.5904518667
 H          1.2541123370       -4.3840837697        2.1209463784
 H          1.8299376687       -2.6707804218        2.0701059946
 H         -0.9520453137       -3.6668526811        1.1460510760
