  62
        -98.93613670
 C         -2.2348964197       -0.7282893585        0.0315785598
 C         -3.1743858535       -0.3922114825        1.0431055333
 C         -4.1817378248        0.6215480995        0.7026116999
 C         -4.1519913633        1.1844124632       -0.5185603578
 C         -5.1535768297        2.1678743401       -1.0534439361
 C         -6.4420237111        1.4299573833       -1.4703628632
 C         -7.6716564039        1.7848933855       -0.6339076308
 H         -8.0374117407        2.7671975188       -0.9402815666
 H         -8.4492208783        1.0555305167       -0.8708521260
 C         -7.4625852809        1.8157502225        0.8831771466
 H         -6.9863985624        2.7547309734        1.1691828937
 H         -8.4545419688        1.8183724041        1.3399757392
 C         -6.6521349988        0.6545766298        1.4735509418
 H         -6.7021341070       -0.2191945244        0.8234042636
 H         -7.1093244720        0.3701221220        2.4234230203
 C         -5.1773141434        0.9867352679        1.7686318225
 H         -5.0829142943        2.0495052467        2.0077112770
 H         -4.8616812102        0.4221281593        2.6507755839
 H         -6.6650024827        1.6495682496       -2.5156039732
 H         -6.2560261865        0.3555705080       -1.4088321170
 H         -5.3699265894        2.9204617568       -0.2985250741
 H         -4.7002555581        2.6573210182       -1.9156980720
 O         -3.2279056168        0.8532040961       -1.4549075659
 C         -2.2549036780       -0.1063718787       -1.2161361214
 O         -1.4970271938       -0.2882773599       -2.1917233811
 O         -3.1726017798       -0.9284278543        2.1831141741
 C         -1.2264577658       -1.8102393782        0.3799811753
 C          0.1305668382       -1.2473856212        0.7312301723
 C          0.6804931009       -1.4540322659        1.9909611730
 C          1.9419132077       -0.9741247686        2.2973631672
 C          2.6785827204       -0.2769809042        1.3567509806
 C          2.1357921516       -0.0598145609        0.0970997332
 C          0.8737026350       -0.5474690855       -0.2088423854
 H          0.4570018565       -0.3746029169       -1.1902805846
 N          2.8713782777        0.6649028992       -0.8616467522
 S          4.3816439357        0.0542838664       -1.2795221185
 O          4.6536727810        0.5730518482       -2.6022626305
 O          4.4299316384       -1.3823052337       -1.1300488782
 C          5.4914554247        0.8222289144       -0.1177074029
 C          6.2733602564        0.0383927426        0.7080774392
 C          7.1380060564        0.6574373956        1.5974680554
 C          7.2054383478        2.0414767642        1.6442474002
 C          6.4149058229        2.8143321135        0.8064545033
 C          5.5494198738        2.2018740787       -0.0857848572
 H          4.9219115139        2.7642429961       -0.7570526882
 H          6.4705149569        3.8903187352        0.8455985709
 H          7.8783431635        2.5211264404        2.3374253937
 H          7.7536945037        0.0585243971        2.2491293520
 H          6.1826699205       -1.0338226348        0.6390912699
 H          2.3374592439        0.8576486282       -1.6979381445
 H          3.6607835831        0.1010682088        1.5893004929
 H          2.3559764577       -1.1438002925        3.2794586732
 H          0.1075108481       -1.9890061167        2.7342631219
 H         -1.6287657391       -2.2904931632        1.2820989715
 C         -1.0892922482       -2.8657676405       -0.7014659498
 C         -0.5512248472       -4.2149887524       -0.3351919604
 C         -1.9988378904       -4.0557652714       -0.6893634650
 H         -2.3477246418       -4.4462543959       -1.6335629936
 H         -2.7276444564       -4.1190938389        0.1055415581
 H          0.1002664506       -4.7157646228       -1.0349241500
 H         -0.2987244559       -4.3876221890        0.6999765046
 H         -0.8145798487       -2.4602900922       -1.6668739926
