  62
        -98.94085587
 C          1.8200362715        0.7246060677        0.5297956888
 C          2.2997612424       -0.0389268711       -0.5635220405
 C          3.4372577134       -0.9236830600       -0.2691907045
 C          3.9054716423       -1.0264321596        0.9868178892
 C          5.0466054627       -1.8949809791        1.4417486682
 C          6.4301865135       -1.2632566398        1.2353629455
 C          6.9079796805       -1.2020713652       -0.2160731887
 H          7.9686925990       -0.9443483190       -0.1929912620
 H          6.8235160089       -2.1913885010       -0.6669851213
 C          6.1694622194       -0.1737097238       -1.0842762135
 H          6.8946141538        0.3982786541       -1.6673665258
 H          5.6454543265        0.5370467175       -0.4410131855
 C          5.1705469208       -0.7779587384       -2.0713519455
 H          4.6810350110        0.0391272444       -2.6075520768
 H          5.7028529597       -1.3883900326       -2.8041420624
 C          4.0800653449       -1.6382028978       -1.4192631588
 H          3.3039846238       -1.8333822463       -2.1636917654
 H          4.4974286134       -2.5902668808       -1.0917926780
 H          7.1474370292       -1.8570273400        1.8066904320
 H          6.4213594604       -0.2561994167        1.6589468080
 H          4.9013118512       -2.0647685096        2.5109228735
 H          5.0036194269       -2.8563093866        0.9288105871
 O          3.3562877299       -0.3439393440        2.0272903395
 C          2.3179189144        0.5511601991        1.8235142444
 O          1.9168312425        1.1112435856        2.8639479647
 H         -0.6308075339       -0.4875077183        1.0008821982
 C         -1.0152404642       -0.0676655847        0.0786826090
 C         -0.4398401535        1.0939983093       -0.4237396685
 C         -0.9412949933        1.6234033064       -1.6046211908
 C         -1.9757178321        0.9902556125       -2.2724324938
 C         -2.5347091056       -0.1731273636       -1.7782840452
 C         -2.0453564336       -0.7069003822       -0.5923229661
 N         -2.6150485795       -1.8840311154       -0.0752988158
 S         -4.2851537727       -1.9787484763       -0.0230683529
 O         -4.5799738476       -2.8867438959        1.0633429986
 O         -4.7910922653       -2.3619345176       -1.3174970643
 C         -4.8293070360       -0.3268876808        0.3749696719
 C         -4.4347938156        0.2098555324        1.5846504798
 C         -4.8093283717        1.5062195478        1.8972585814
 C         -5.5677087636        2.2407053982        0.9981793472
 C         -5.9604597501        1.6858551638       -0.2096702045
 C         -5.5869962298        0.3898701275       -0.5282995954
 H         -5.8684605818       -0.0793002995       -1.4567870647
 H         -6.5521933712        2.2588101726       -0.9051036205
 H         -5.8540956515        3.2512883600        1.2430460629
 H         -4.5047072956        1.9387974942        2.8368314726
 H         -3.8501675520       -0.3899011158        2.2641129989
 H         -2.2042282989       -2.1912372233        0.7936183737
 H         -3.3286786383       -0.6863611302       -2.2961457778
 H         -2.3472465176        1.4057163538       -3.1966228227
 H         -0.5044505447        2.5165667164       -2.0192582954
 C          0.6815215959        1.7176202471        0.3707222119
 H          0.3089573191        1.8853800781        1.3949521553
 C          1.1147039162        3.0772670254       -0.1575434694
 C          2.4975039060        3.5968043019        0.0973433947
 C          2.0800219419        3.2283616268       -1.2930140593
 H          1.9140084578        4.0245386566       -2.0040239380
 H          2.4803716458        2.3287721415       -1.7321766953
 H          2.6161528974        4.6416738120        0.3420967594
 H          3.1888006262        2.9475119501        0.6154175384
 H          0.3129207829        3.8066842434       -0.0992559732
 O          1.8180079393        0.0040215237       -1.7235965820
