  62
        -98.94522511
 C         -1.8039705165       -1.4699306368        0.0939639133
 C         -1.5666179247       -0.0805687599       -0.0463630084
 C         -2.6410444349        0.7954528930        0.4384737483
 C         -3.7555931566        0.2610023575        0.9691437557
 C         -4.9303553055        1.0268074644        1.5151128804
 C         -5.9330717936        1.4800800990        0.4448479105
 C         -5.4613511061        2.6297317895       -0.4466966069
 H         -6.3356873001        2.9897626070       -0.9927370115
 H         -5.1081503848        3.4504830331        0.1782514137
 C         -4.3729110505        2.2431422065       -1.4579689945
 H         -4.6259641211        2.6527768443       -2.4385238283
 H         -4.3441445626        1.1561869870       -1.5634435825
 C         -2.9724482067        2.7430734290       -1.1034352232
 H         -2.2760781538        2.3793501141       -1.8628432946
 H         -2.9585004419        3.8349633251       -1.1259997867
 C         -2.4655217529        2.2737091792        0.2661006652
 H         -1.3949706467        2.4811022634        0.3261351384
 H         -2.9772238303        2.8134573169        1.0625415655
 H         -6.1935488326        0.6200577364       -0.1765098974
 H         -6.8395477786        1.8002951703        0.9638894253
 H         -4.5759693607        1.8937947388        2.0734421123
 H         -5.4450947657        0.3556074406        2.2060493248
 O         -3.9396591741       -1.0814353408        1.0914233918
 C         -2.9740782525       -1.9761721259        0.6585508910
 O         -3.2675476104       -3.1764847802        0.8345235782
 O         -0.5192921596        0.4043196659       -0.5451126058
 C         -0.7477642324       -2.4622197473       -0.3612033536
 C          0.5472995806       -2.1373578349        0.3411080507
 C          0.5706927665       -2.1574107098        1.7333981125
 C          1.7132403756       -1.8095237328        2.4275371351
 C          2.8580423359       -1.4275906737        1.7490547288
 C          2.8446639850       -1.4051239765        0.3616952798
 C          1.6993190004       -1.7711469672       -0.3343517991
 H          1.7083799317       -1.7453344916       -1.4125042325
 N          4.0017400604       -1.0130827703       -0.3402368442
 S          4.6651442457        0.4849635072        0.0064557981
 O          5.6070233080        0.7316440421       -1.0623958651
 O          5.2107768249        0.4626772979        1.3403052870
 C          3.3192402576        1.6500319795       -0.0869493767
 C          2.6035961917        1.9581729281        1.0514815469
 C          1.5444961476        2.8455291523        0.9542783202
 C          1.2197367404        3.4032225015       -0.2718197600
 C          1.9432166057        3.0765307393       -1.4074968225
 C          3.0015929000        2.1886521969       -1.3174656255
 H          3.5962482323        1.9169044024       -2.1751624667
 H          1.6817816766        3.5074884569       -2.3607171359
 H          0.3965323113        4.0969996686       -0.3449248755
 H          0.9736353438        3.0946521766        1.8350157582
 H          2.8884995087        1.5085454235        1.9887019383
 H          3.9091962891       -1.1123645512       -1.3415062514
 H          3.7535539207       -1.1357710515        2.2734057440
 H          1.7138251065       -1.8304097459        3.5071132349
 H         -0.3287858921       -2.4400117611        2.2642347598
 H         -1.0878989976       -3.4516483657       -0.0250003767
 C         -0.6491905528       -2.4662514695       -1.8721300142
 C         -0.0948498868       -3.6616957414       -2.5859273447
 C         -1.5609697243       -3.3590365153       -2.6564459005
 H         -1.9683396322       -2.9913984777       -3.5864009493
 H         -2.2433267213       -3.9845140829       -2.0993974296
 H          0.5023954014       -3.5055798554       -3.4717544688
 H          0.2213397462       -4.5003842534       -1.9843083975
 H         -0.4442579717       -1.4834819858       -2.2814095026
