  62
        -98.93910154
 C         -2.3966421965       -0.1776848361        0.1867618590
 C         -1.9681233965        0.6980208581        1.2164111195
 C         -1.7050423133        2.0974587176        0.8510390020
 C         -1.8536208534        2.4777429588       -0.4312313496
 C         -1.6616399905        3.8230350753       -1.0991277478
 C         -0.9059074664        4.9438712037       -0.3900175606
 C          0.5837757262        4.6763968874       -0.1776596946
 H          1.0789292770        4.6710002521       -1.1522892580
 H          0.9977693855        5.5039960205        0.4032999519
 C          0.9295420852        3.3606763534        0.5165253092
 H          2.0183646390        3.3129312500        0.6161396214
 H          0.6382247164        2.5207203162       -0.1193489451
 C          0.3265585936        3.1821158894        1.9090288257
 H          0.5850117671        4.0408212964        2.5319437430
 H          0.7860347953        2.2951711314        2.3522206480
 C         -1.1988342912        2.9840489632        1.9523784755
 H         -1.4472762292        2.4781345834        2.8900017193
 H         -1.7232719741        3.9367099297        1.9451047499
 H         -0.9935403222        5.8280797924       -1.0275551832
 H         -1.3870765751        5.1858810332        0.5530870471
 H         -1.1664334107        3.6057569434       -2.0513983427
 H         -2.6667774185        4.1830740818       -1.3468377375
 O         -2.2903860566        1.6093000342       -1.3853515766
 C         -2.5124508438        0.2670559846       -1.1288702204
 O         -2.8151502791       -0.3854789877       -2.1505402970
 O         -1.8087805896        0.3165236884        2.4075238066
 C         -2.5312127190       -1.6416585914        0.5814128333
 C         -1.1465381217       -2.2408419035        0.5032255710
 C         -0.5354351144       -2.8354046095        1.5998138688
 C          0.7892637714       -3.2351466592        1.5401524573
 C          1.5401693417       -3.0082760567        0.4000172385
 C          0.9308973497       -2.4258988822       -0.7030276784
 C         -0.4093742914       -2.0857710944       -0.6628079167
 H         -0.8654319423       -1.6243676389       -1.5271668923
 N          1.7367360117       -2.0582661679       -1.8228357994
 S          2.1288743955       -0.4148878705       -1.6952137411
 O          0.9501352843        0.4094328168       -1.5353496003
 O          2.9496170808       -0.1135193791       -2.8485878598
 C          3.1036503795       -0.3817566210       -0.2104710999
 C          2.4835260557       -0.0886084164        0.9880523521
 C          3.2363383645       -0.1086242252        2.1512615767
 C          4.5858545041       -0.4228833736        2.0951504086
 C          5.1926560170       -0.7162958633        0.8829793897
 C          4.4456035347       -0.6992081527       -0.2840465797
 H          4.8707127697       -0.9174473214       -1.2497698825
 H          6.2420858374       -0.9600992878        0.8445234469
 H          5.1667128639       -0.4388979093        3.0037704851
 H          2.7616097554        0.1152658617        3.0932797650
 H          1.4298081374        0.1469681834        0.9900662245
 H          1.2534635869       -2.1864318735       -2.7032377434
 H          2.5867024078       -3.2619563080        0.3559221074
 H          1.2507514977       -3.6926671411        2.4012710640
 H         -1.0960763765       -2.9512282790        2.5152632830
 H         -2.8370519632       -1.6415607513        1.6366211650
 C         -3.5384362216       -2.4430887517       -0.2128920165
 C         -4.0996957375       -3.6964130798        0.3876860125
 C         -4.9663890251       -2.4830886527        0.2384852135
 H         -5.7406883337       -2.4857186933       -0.5135744770
 H         -5.2248435395       -1.9273986112        1.1279581535
 H         -4.2797912596       -4.5398415517       -0.2607426866
 H         -3.7740390462       -3.9656978543        1.3808200268
 H         -3.3574739825       -2.4316162587       -1.2795204126
