  62
        -98.93745442
 C         -1.1635469083       -1.3577137502       -0.5138299477
 C         -2.4909156258       -1.6576811319       -0.1205617101
 C         -3.4825979055       -0.5882930829       -0.3067930700
 C         -3.0844629570        0.5905184366       -0.8192170262
 C         -3.9526300316        1.8054315645       -0.9855979006
 C         -4.1500524357        2.5030341569        0.3753459357
 C         -5.5900657760        2.4863594880        0.8888429745
 H         -5.5694375276        2.8074687982        1.9324539114
 H         -6.1754429607        3.2197989059        0.3302610366
 C         -6.3163958800        1.1410014181        0.7964700809
 H         -7.2056856664        1.2155652165        1.4261156615
 H         -6.6710816430        0.9838813154       -0.2233199955
 C         -5.5083442697       -0.0890134734        1.2297526651
 H         -4.7151622661        0.1950434724        1.9215491342
 H         -6.1772891280       -0.7605476853        1.7719550305
 C         -4.9050159863       -0.9011545897        0.0683557762
 H         -5.5442280145       -0.8062485462       -0.8139354111
 H         -4.8928780569       -1.9577192368        0.3519180292
 H         -3.4968757571        2.0201118498        1.1048301661
 H         -3.8275843023        3.5424625840        0.3022459785
 H         -4.9116141168        1.5160478540       -1.4097374245
 H         -3.4482036441        2.4710615728       -1.6858470446
 O         -1.8013673863        0.8416398277       -1.1843146267
 C         -0.8087788035       -0.1193952287       -1.0493565148
 O          0.3113788606        0.2519365036       -1.4420362532
 O         -2.8316827671       -2.7713418024        0.3621629863
 C         -0.0962352638       -2.4210682066       -0.3107926670
 C          0.8186974051       -1.9576798106        0.7952016864
 C          0.4250922931       -2.1500291043        2.1176281300
 C          1.2091356451       -1.6976726247        3.1612407259
 C          2.3937381438       -1.0287897964        2.9068669587
 C          2.7902417276       -0.8230673751        1.5901161884
 C          2.0108568706       -1.2957725190        0.5426398209
 H          2.3400508676       -1.1218807372       -0.4673791230
 N          3.9857545510       -0.1465741231        1.3111318315
 S          4.1835343315        0.7921762359       -0.0510119946
 O          4.3299887663       -0.0412455548       -1.2180996219
 O          5.3360104939        1.6138605428        0.2665524441
 C          2.7608942190        1.8580880645       -0.2090041595
 C          2.0391184179        2.2381597370        0.9032627732
 C          0.9787116651        3.1156752212        0.7446972783
 C          0.6681088056        3.6078052512       -0.5121813578
 C          1.4099926177        3.2253273965       -1.6171901162
 C          2.4643602906        2.3409814657       -1.4659949031
 H          3.0508162322        1.9998411656       -2.3040355115
 H          1.1620009114        3.5999691289       -2.5975598807
 H         -0.1620053657        4.2862973979       -0.6326177497
 H          0.3943671847        3.4074207938        1.6032909928
 H          2.2880440210        1.8436542909        1.8752398108
 H          4.4587956966        0.2496496213        2.1097718780
 H          3.0081710963       -0.6697981025        3.7185514358
 H          0.8954017818       -1.8610582314        4.1810685056
 H         -0.5101070279       -2.6555228002        2.3137362068
 H         -0.6363905845       -3.3101312015        0.0426210203
 C          0.6266406095       -2.7729396629       -1.5928727627
 C          1.4185498290       -4.0434349935       -1.6574244622
 C          0.1344790786       -3.9206486795       -2.4203095066
 H          0.1782951799       -3.8360043354       -3.4958437665
 H         -0.7272060054       -4.4635109778       -2.0598815056
 H          2.3485385759       -4.0419525351       -2.2053587413
 H          1.4277391781       -4.6696514438       -0.7779564519
 H          1.0126865369       -1.9115723467       -2.1240469905
