  62
        -98.94848503
 C          0.8316984471        1.2188886174        0.5685976951
 C          1.2027376712        0.5338324039       -0.6131218862
 C          2.1441007692       -0.5779959580       -0.4280284418
 C          2.4765937664       -0.9704908311        0.8144927832
 C          3.4209654906       -2.0878023163        1.1666558741
 C          4.8952750696       -1.6601752519        1.1889638939
 C          5.5159022697       -1.4096370815       -0.1862176979
 H          6.5949800228       -1.3306300609       -0.0399538343
 H          5.3368509517       -2.2736425197       -0.8266713402
 C          5.0182620859       -0.1362388220       -0.8846850570
 H          4.5397483484        0.5180091147       -0.1520797336
 H          5.8713880343        0.4115181007       -1.2914591092
 C          4.0462374628       -0.3824807801       -2.0390972850
 H          3.7354425777        0.5876206548       -2.4347338366
 H          4.5579897095       -0.9236319495       -2.8377986476
 C          2.7832542522       -1.1638608625       -1.6500463228
 H          3.0276547721       -2.2129684686       -1.4909855304
 H          2.0639592297       -1.0844371956       -2.4677471715
 H          4.9892362417       -0.7607576109        1.8021179836
 H          5.4597041846       -2.4563655671        1.6800261972
 H          3.1444876534       -2.4288436370        2.1667723710
 H          3.2977069721       -2.9146691645        0.4672919822
 O          1.9678113077       -0.3808484457        1.9311862988
 C          1.1932450546        0.7647689245        1.8359224629
 O          0.8877906762        1.2734047815        2.9350798615
 O          0.7932112821        0.8458072446       -1.7599754094
 C          0.0185014631        2.4967744293        0.4768465482
 C         -1.3091212572        2.2390554714       -0.1906984174
 C         -1.8142213895        3.0227405180       -1.2201028238
 C         -3.0520073735        2.7403681488       -1.7710440535
 C         -3.8093049988        1.6807093606       -1.3081493001
 C         -3.3168813631        0.8976802732       -0.2692678704
 C         -2.0760856112        1.1794926603        0.2784861606
 H         -1.7040778456        0.5736082769        1.0927314912
 N         -4.0734241271       -0.1668657184        0.2405178525
 S         -3.3453864894       -1.5015523333        0.9117790930
 O         -4.3798350237       -2.5158051023        0.8853705822
 O         -2.8162737405       -1.1918755907        2.2170672437
 C         -2.0320300914       -2.0031923845       -0.1861228285
 C         -2.2093611151       -1.9260893029       -1.5529026958
 C         -1.2219543900       -2.4258030029       -2.3858858044
 C         -0.0892117912       -3.0100660420       -1.8430156062
 C          0.0761765891       -3.0766656102       -0.4690664113
 C         -0.8999575097       -2.5631348940        0.3684687950
 H         -0.8034143719       -2.5827654895        1.4431770080
 H          0.9561010996       -3.5299190778       -0.0426117572
 H          0.6692760888       -3.4153741800       -2.4934900150
 H         -1.3418414198       -2.3621246144       -3.4552741980
 H         -3.1042378304       -1.4808380298       -1.9556503328
 H         -4.9117628418       -0.3966867566       -0.2716287181
 H         -4.7750077722        1.4616345540       -1.7370942458
 H         -3.4311826784        3.3533419648       -2.5743177307
 H         -1.2388101452        3.8531932553       -1.5937935683
 H         -0.1836453950        2.8023564798        1.5144545155
 C          0.8406343160        3.5753019217       -0.1995385485
 C          0.6223317091        5.0182729933        0.1389658293
 C          1.8611903886        4.3174929547        0.6077964457
 H          2.8042056863        4.5674583428        0.1451129996
 H          1.9433086799        4.0642817146        1.6553110422
 H          0.7185211428        5.7536863654       -0.6454547795
 H         -0.1349655478        5.2506982931        0.8724234916
 H          1.1018297571        3.3207103721       -1.2202378115
