  62
        -98.94174878
 C          2.7572644298        0.0400282715       -0.1532974198
 C          2.0383222302       -0.7346298189       -1.0957462297
 C          1.8391550810       -2.1499056690       -0.7520111797
 C          2.3303539214       -2.6316504287        0.4024940303
 C          2.1559317422       -4.0390407188        0.8929597703
 C          0.9151933224       -4.1794274995        1.7852297504
 C         -0.3611279380       -3.5838874802        1.1894276705
 H         -1.1741923178       -3.8064127207        1.8849336605
 H         -0.2758068086       -2.4947328302        1.1489509505
 C         -0.7260266378       -4.1119283904       -0.2048856095
 H         -1.7991862977       -4.3135652210       -0.2277230294
 H         -0.2135089573       -5.0565828001       -0.3925732395
 C         -0.4291362285       -3.1326668603       -1.3424453195
 H         -0.8108308590       -2.1443881205       -1.0710961495
 H         -0.9649522983       -3.4682792606       -2.2347353495
 C          1.0506009314       -2.9854792494       -1.7205045996
 H          1.5029507220       -3.9718031292       -1.8414043697
 H          1.1018141311       -2.4626909294       -2.6799822896
 H          1.1121304322       -3.6764872194        2.7350387604
 H          0.7600630030       -5.2410542696        1.9888303504
 H          3.0394086324       -4.3099772183        1.4740279202
 H          2.0774411125       -4.7072735188        0.0374676703
 O          3.0309573110       -1.8661058083        1.2777753702
 C          3.2358534602       -0.5203270582        1.0356767902
 O          3.8676636200        0.0681648122        1.9371013201
 O          1.5701765699       -0.2924558091       -2.1809420597
 C          2.9943978590        1.5384835317       -0.2960592198
 C          1.7680808886        2.2710040210        0.1951746003
 C          1.8277539581        3.1722345210        1.2511429003
 C          0.6732273179        3.7478505204        1.7549121404
 C         -0.5660741620        3.4161075597        1.2353707904
 C         -0.6304215216        2.5256204996        0.1740420805
 C          0.5277781987        1.9835587103       -0.3557265396
 H          0.4599034090        1.2859756302       -1.1771971896
 N         -1.9014642114        2.0925469589       -0.3038247894
 S         -2.4331731106        0.8335658986        0.7077458106
 O         -2.6887644208        1.4007619885        2.0082327206
 O         -1.4997751099       -0.2709387309        0.6676632905
 C         -3.9743304804        0.3701869377       -0.0594686893
 C         -4.0786062797       -0.8419972023       -0.7129017293
 C         -5.2807905196       -1.1754928030       -1.3175678892
 C         -6.3494104901       -0.2940110636       -1.2608753991
 C         -6.2281067807        0.9205988264       -0.6016085891
 C         -5.0301410209        1.2592881071        0.0063877708
 H         -4.8911941013        2.1866904272        0.5362529308
 H         -7.0621869711        1.6022178960       -0.5588820791
 H         -7.2834621300       -0.5565595942       -1.7319594990
 H         -5.3769883391       -2.1199918431       -1.8285424692
 H         -3.2224893893       -1.4979631519       -0.7283995993
 H         -1.8021728912        1.6951003989       -1.2317703595
 H         -1.4769190822        3.8109752991        1.6543623505
 H          0.7373562975        4.4419282304        2.5792592303
 H          2.7847494681        3.3968369016        1.6996142902
 H          3.8234504189        1.7777807322        0.3835852101
 C          3.3803247986        1.9718807019       -1.6957910398
 C          4.1302560879        3.2561936323       -1.8752752099
 C          4.8228986086        1.9459175827       -2.0977619399
 H          5.0697958287        1.6538863228       -3.1072299900
 H          5.5401826388        1.6157082931       -1.3602352600
 H          3.9014778975        3.8691612022       -2.7333414399
 H          4.3821264576        3.8171288925       -0.9879902099
 H          2.6504184787        1.7027141415       -2.4472412398
