  62
        -98.94491292
 C         -2.5598025678       -0.1140256516        0.0288077539
 C         -2.4043573538        0.8923335940        1.0101564933
 C         -2.1750753616        2.2528848019        0.5088437079
 C         -2.1329232107        2.4656104959       -0.8190351309
 C         -1.9119574908        3.8014295637       -1.4674603042
 C         -0.4292316241        4.0579656596       -1.7649413714
 C          0.5013641288        3.8037645268       -0.5787570456
 H          0.5323372971        2.7326242212       -0.3648885279
 H          1.5083189871        4.0875106722       -0.8939530903
 C          0.1367989111        4.5723679054        0.6986733633
 H          1.0544116904        4.9732031568        1.1346806341
 H         -0.5044757214        5.4201369733        0.4530319384
 C         -0.5335394306        3.7260421757        1.7831249903
 H          0.0409065778        2.8068205192        1.9332703060
 H         -0.5038461330        4.2878672154        2.7210713776
 C         -1.9972284884        3.3450904980        1.5249383065
 H         -2.4107957070        2.9539326542        2.4593856511
 H         -2.5654799584        4.2343732094        1.2432935044
 H         -0.1209366137        3.4018307755       -2.5819432219
 H         -0.3224509196        5.0926561874       -2.0976700008
 H         -2.4673639694        3.8174401416       -2.4071688180
 H         -2.3011254382        4.5802381292       -0.8140639787
 O         -2.2792717985        1.4726202215       -1.7329821058
 C         -2.4617802191        0.1567434908       -1.3356822480
 O         -2.5366259462       -0.6577102938       -2.2759945026
 O         -2.4671185452        0.6633555286        2.2506150664
 C         -2.7558411958       -1.5508645233        0.4734431241
 C         -1.5912044388       -2.4040048717        0.0302468515
 C         -1.7251397362       -3.7262942286       -0.3732298341
 C         -0.6101972821       -4.4593728663       -0.7434939877
 C          0.6514939683       -3.8954209520       -0.7252955758
 C          0.7955457950       -2.5690251171       -0.3288074845
 C         -0.3192490267       -1.8473455210        0.0609978522
 H         -0.1967339968       -0.8251521164        0.3873928947
 N          2.0550689544       -1.9490781806       -0.3579325166
 S          2.3210851449       -0.4904309844        0.4335202601
 O          2.0438062359       -0.6211311964        1.8482679975
 O          1.6228568418        0.5571421112       -0.2664865409
 C          4.0769046486       -0.3272177706        0.1741679048
 C          4.5258568966        0.2522429894       -0.9971199238
 C          5.8908369420        0.3483263813       -1.2170888368
 C          6.7792810130       -0.1352342146       -0.2680743785
 C          6.3141903842       -0.7116855475        0.9043833867
 C          4.9502646186       -0.8106971420        1.1301827475
 H          4.5426349689       -1.2395531844        2.0315248673
 H          7.0070818266       -1.0831754324        1.6420071566
 H          7.8409432294       -0.0594616714       -0.4421692413
 H          6.2555504156        0.7993313982       -2.1258038695
 H          3.7965718878        0.6199542894       -1.7004034056
 H          2.8311565529       -2.5897324294       -0.2750322408
 H          1.5168040768       -4.4669004379       -1.0233291724
 H         -0.7271702566       -5.4868768197       -1.0530422349
 H         -2.7015292057       -4.1819344834       -0.3990639691
 H         -2.7484075740       -1.5180696366        1.5745790838
 C         -4.0978092381       -2.0797026768        0.0105457210
 C         -4.8515727295       -3.0733044777        0.8417936078
 C         -5.3324774502       -1.6575551521        0.7475015440
 H         -6.2264598304       -1.4494310758        0.1792907390
 H         -5.1992452285       -1.0122388848        1.6038176670
 H         -5.4209956676       -3.8398089667        0.3380651586
 H         -4.4021630305       -3.3923852381        1.7701784544
 H         -4.1608299429       -2.1578540529       -1.0689110005
