  62
        -98.93826026
 C         -2.8469947057       -0.0416522945        0.1198182415
 C         -2.5046824905        0.8575376948       -0.9198024403
 C         -2.2227593410        2.2386279553       -0.4991060890
 C         -2.2313262187        2.5645785144        0.8045939900
 C         -1.9338010982        3.9209921934        1.3829081312
 C         -0.4335817933        4.2117606555        1.5295897334
 C          0.3019606625        4.5285970888        0.2265807335
 H         -0.2484791868        5.2905783778       -0.3267282713
 H          1.2665520130        4.9582586527        0.5043681161
 C          0.5525247766        3.3120755743       -0.6752657005
 H          0.4733428944        2.3957995617       -0.0833477868
 H          1.5759235557        3.3575276651       -1.0573244160
 C         -0.3689560559        3.2176269133       -1.8919060578
 H         -0.1482490144        2.2857391316       -2.4188420598
 H         -0.1588698452        4.0466111231       -2.5721525948
 C         -1.8667642629        3.2313064918       -1.5655669213
 H         -2.1760643897        4.2321127555       -1.2651124741
 H         -2.4124951321        2.9520325100       -2.4706964502
 H         -0.3326601173        5.0710936719        2.1969497399
 H          0.0427130202        3.3549416140        2.0135718046
 H         -2.3994042364        4.6945225337        0.7710359805
 H         -2.3885198414        3.9413410105        2.3756231241
 O         -2.5355747392        1.6650110109        1.7781536300
 C         -2.8325454565        0.3520684798        1.4612857923
 O         -3.0816562335       -0.3692340279        2.4493292745
 O         -2.4276348130        0.5527231491       -2.1380852641
 C         -3.1153499705       -1.5238890917       -0.0976202068
 C         -1.8339419140       -2.2780072843        0.1565031537
 C         -1.7942224762       -3.4101546234        0.9600437610
 C         -0.5893654585       -4.0287564500        1.2492645409
 C          0.6000008424       -3.5212018199        0.7571780517
 C          0.5664397060       -2.3960757176       -0.0538963566
 C         -0.6412019259       -1.7938196142       -0.3622849963
 H         -0.6532439250       -0.9120347179       -0.9887040339
 N          1.7904941782       -1.8207633715       -0.4978466698
 S          2.4116371207       -0.8238565537        0.7299518449
 O          2.6644610963       -1.6510264575        1.8819458035
 O          1.5406462338        0.3141404924        0.9353538777
 C          3.9547597037       -0.3034673208        0.0059175386
 C          5.0059920840       -1.1998844200       -0.0128052090
 C          6.1982144987       -0.8196004976       -0.6074774576
 C          6.3175210677        0.4420650444       -1.1716622765
 C          5.2532617263        1.3303865624       -1.1445375981
 C          4.0573664135        0.9556224202       -0.5519668276
 H          3.2044639140        1.6137978124       -0.5007913062
 H          5.3488164026        2.3112473468       -1.5817610625
 H          7.2465380553        0.7360521581       -1.6339871397
 H          7.0288193138       -1.5064311278       -0.6293804120
 H          4.8678882587       -2.1653443965        0.4443701814
 H          1.6261295296       -1.2234093130       -1.3004684784
 H          1.5493153325       -3.9626861456        1.0112831630
 H         -0.5747773050       -4.9023227874        1.8830927758
 H         -2.7124731944       -3.7867799573        1.3866828595
 H         -3.8288266251       -1.8166858632        0.6896674149
 C         -3.7517536050       -1.8530870707       -1.4386425731
 C         -3.0108636185       -2.5258053471       -2.5510673228
 C         -4.0553486110       -3.2800675507       -1.7881475296
 H         -4.9929730877       -3.5034996839       -2.2737158390
 H         -3.7176570258       -4.0427415066       -1.1027965259
 H         -3.2258665076       -2.2062108615       -3.5589972650
 H         -1.9759679771       -2.7848852932       -2.3890428564
 H         -4.4882407945       -1.1125965377       -1.7303552669
