  62
        -98.93705620
 C          1.6567839834        1.7877198602       -0.0449607305
 C          1.5369357226        0.4350741422       -0.4381578177
 C          2.7140394391       -0.4241549287       -0.1990532295
 C          3.8074954610        0.1074419569        0.3760267110
 C          5.1174474315       -0.5611867406        0.7089086125
 C          5.0320093575       -1.9454193534        1.3708487689
 C          5.4878800845       -3.0850432821        0.4580440325
 H          6.3597490762       -2.7498686484       -0.1077204102
 H          5.8074911023       -3.9241973292        1.0800916119
 C          4.4259175646       -3.6048762065       -0.5092422728
 H          4.9137110996       -4.3106411662       -1.1857342534
 H          3.6711031621       -4.1608031014        0.0509636569
 C          3.7192887385       -2.5336730634       -1.3429317209
 H          4.4315545314       -1.7818596188       -1.6805747666
 H          3.3206176015       -3.0171185360       -2.2372899572
 C          2.5470149058       -1.8601425870       -0.6141868472
 H          1.6649879920       -1.8523904060       -1.2617964254
 H          2.2691944886       -2.4469667608        0.2658552453
 H          4.0176607473       -2.1249688708        1.7238594601
 H          5.6816473861       -1.9359530296        2.2476374769
 H          5.7180524023       -0.6220378923       -0.2019669886
 H          5.6315132192        0.1370697340        1.3733516467
 O          3.8763508774        1.4225536783        0.7347795474
 C          2.8156220913        2.2876529479        0.5461587879
 O          3.0203178055        3.4532583024        0.9416457033
 H         -1.9531413091        1.8682242479       -1.1938127321
 C         -1.8565820452        1.7621281487       -0.1250461433
 C         -0.7001223474        2.1803196811        0.5112664047
 C         -0.6056765562        2.0227265911        1.8917009796
 C         -1.6393147224        1.4555766723        2.6116928710
 C         -2.7884081615        1.0254073276        1.9701614290
 C         -2.8905585263        1.1758790083        0.5944081614
 N         -4.0517881011        0.7368473740       -0.0713431944
 S         -4.5268321970       -0.8559945786        0.1310678524
 O         -5.5148501326       -1.0841760232       -0.8994417393
 O         -4.9707473463       -1.0466139349        1.4892196914
 C         -3.0768646912       -1.8437611876       -0.1834864189
 C         -2.2405772637       -2.1771322343        0.8619599851
 C         -1.1020607825       -2.9192403040        0.5950472189
 C         -0.8203066965       -3.3121980015       -0.7032241259
 C         -1.6671355562       -2.9631951000       -1.7429678131
 C         -2.8047831743       -2.2179375118       -1.4838509484
 H         -3.4937713859       -1.9339659574       -2.2633805917
 H         -1.4407408340       -3.2646384194       -2.7532644920
 H          0.0654307650       -3.8932650725       -0.9066817628
 H         -0.4371766960       -3.1851182635        1.4015275976
 H         -2.4953990130       -1.8602029419        1.8600626881
 H         -4.0524373913        0.9634168715       -1.0560179533
 H         -3.5991386804        0.5666734474        2.5127748676
 H         -1.5505479518        1.3424717978        3.6818581499
 H          0.2991655791        2.3439429281        2.3904668101
 C          0.4877828008        2.7399283424       -0.2312993813
 H          0.7830123038        3.6841617182        0.2468131773
 C          0.2372968482        2.9940981692       -1.7024483185
 C         -0.5095190497        4.2201130093       -2.1325030999
 C          0.9645697018        4.1138908627       -2.3810607209
 H          1.3081291528        3.9660899061       -3.3939335938
 H          1.6325591195        4.7111044542       -1.7775989320
 H         -1.1774944332        4.1504544584       -2.9778408785
 H         -0.8461179991        4.8955351912       -1.3605691079
 H          0.0940686054        2.0811249469       -2.2687389853
 O          0.5009996418       -0.0407773482       -0.9709340930
