  62
        -98.94125015
 C         -1.8290609002       -0.9287296493        0.7052059107
 C         -2.0875248596        0.4612288709        0.8490158898
 C         -3.4779265494        0.8898878713        0.6702548594
 C         -4.4275428098       -0.0273808084        0.4132316897
 C         -5.8988793796        0.2398177321        0.2468326193
 C         -6.2989844492        0.6813044915       -1.1674530910
 C         -5.8802170786        2.1022093211       -1.5467816217
 H         -6.4078151183        2.3563154308       -2.4683250619
 H         -6.2176670284        2.7966970217       -0.7767818922
 C         -4.3724877485        2.2770458603       -1.7766870216
 H         -3.9095804388        1.2978168201       -1.9199889009
 H         -4.2080844181        2.8448863697       -2.6952621119
 C         -3.6393038383        3.0107992307       -0.6535673919
 H         -2.5759965883        3.0434150101       -0.9042185617
 H         -4.0030126979        4.0387353109       -0.5897137725
 C         -3.7801558688        2.3568274415        0.7272812285
 H         -4.7823169188        2.5233306121        1.1220081782
 H         -3.0553465287        2.8191136416        1.4015587283
 H         -5.8796706594       -0.0266029791       -1.8861658605
 H         -7.3875355092        0.6159567919       -1.2333176611
 H         -6.2175635194        0.9930700227        0.9679905889
 H         -6.4119450401       -0.6974744975        0.4728784098
 O         -4.1454926303       -1.3497201986        0.2936913505
 C         -2.8480737605       -1.8328076191        0.4045134110
 O         -2.7669100310       -3.0636646492        0.2188087917
 O         -1.1929829293        1.3034790806        1.1273143495
 C         -0.3877782504       -1.3635523198        0.8955794511
 C          0.3561493897       -1.5036925309       -0.4112041287
 C         -0.0904890105       -2.3453957713       -1.4239946483
 C          0.6397544397       -2.4798871222       -2.5906542381
 C          1.8358766400       -1.8038334528       -2.7586940883
 C          2.2926504502       -0.9638443125       -1.7505665887
 C          1.5412899201       -0.8069457015       -0.5945855089
 H          1.8909872102       -0.1369825712        0.1756653208
 N          3.4985046305       -0.2614688130       -1.8824034289
 S          4.5112622703       -0.1003049527       -0.5574836388
 O          5.8198374405        0.1342053764       -1.1294172887
 O          4.3992359797       -1.2290622622        0.3358617318
 C          3.9596584608        1.3868938380        0.2493035803
 C          3.8606341315        2.5420471376       -0.5004163704
 C          3.4475728218        3.7091596981        0.1211976389
 C          3.1445755916        3.7023380690        1.4743975288
 C          3.2537317610        2.5354909594        2.2144815295
 C          3.6661094206        1.3648819889        1.5981432902
 H          3.7591372501        0.4340164991        2.1359879508
 H          3.0154796608        2.5312421801        3.2661497495
 H          2.8198742619        4.6109956894        1.9563159583
 H          3.3603902923        4.6195153178       -0.4498279516
 H          4.1073860316        2.5086978869       -1.5484528103
 H          4.0136665106       -0.4540590437       -2.7290210087
 H          2.4123867401       -1.9255801536       -3.6633232981
 H          0.2815838295       -3.1320532525       -3.3731488578
 H         -1.0101926807       -2.8929230208       -1.2856519081
 H          0.0855449698       -0.5418431997        1.4507228707
 C         -0.2265051011       -2.6382658594        1.7039884119
 C          1.1297930487       -2.9833986197        2.2403229723
 C          0.0413424987       -2.5498399587        3.1748797719
 H         -0.4041873117       -3.2878716082        3.8250084622
 H          0.1071934791       -1.5645950585        3.6129731813
 H          1.4286776582       -4.0206569598        2.2466208929
 H          1.9427319590       -2.3018439802        2.0351654920
 H         -0.8497541214       -3.4506532994        1.3538017122
