  62
        -98.94101639
 C          1.5733236724       -0.0971615142        0.8142086076
 C          2.8727644426       -0.2200868751        1.3702104724
 C          3.9586951312        0.4342171259        0.6327344298
 C          3.6857655701        1.0937707564       -0.5072756242
 C          4.6797360137        1.8302461331       -1.3638837576
 C          5.4352832304        0.9330692100       -2.3538127055
 C          6.4844420828        0.0128797705       -1.7284582122
 H          7.0824916627       -0.3937155586       -2.5464939328
 H          7.1527848349        0.6004298178       -1.0981934246
 C          5.9016137487       -1.1528518775       -0.9172416154
 H          6.4186054450       -2.0773080535       -1.1845659687
 H          4.8494353125       -1.2883745121       -1.1784487652
 C          6.0182458811       -0.9911337678        0.5984965497
 H          5.5422686964       -1.8530986422        1.0731604815
 H          7.0717571899       -0.9879272750        0.8870367506
 C          5.3564883917        0.2781287844        1.1508748041
 H          5.3011852402        0.1897221841        2.2387552898
 H          5.9554172901        1.1537279917        0.9010603236
 H          4.7084752809        0.3335642056       -2.9067945639
 H          5.9384048972        1.5882053868       -3.0687630467
 H          5.3937974416        2.3549060798       -0.7284146058
 H          4.1121816214        2.5689333948       -1.9337341512
 O          2.4299858967        1.1792256565       -1.0162822008
 C          1.3454861999        0.5694292385       -0.3916561778
 O          0.2748862685        0.7070337876       -1.0085387082
 O          3.1142097529       -0.8505137626        2.4342047123
 C          0.4344829586       -0.7892621821        1.5424372729
 C         -0.3671095740       -1.6154597463        0.5706886608
 C          0.2247623022       -2.7336293615       -0.0110880820
 C         -0.4648285332       -3.4960254846       -0.9335495717
 C         -1.7576984377       -3.1595931053       -1.2946540330
 C         -2.3548447716       -2.0417601523       -0.7237281978
 C         -1.6617738867       -1.2826014606        0.2089981534
 H         -2.1350513433       -0.4159900345        0.6373372313
 N         -3.6396608030       -1.6520790422       -1.1088235283
 S         -4.6167590868       -0.6688091972       -0.1959483690
 O         -4.5973590496       -1.0414797889        1.2005811872
 O         -5.9092854149       -0.7537676260       -0.8437853441
 C         -3.9761693217        0.9819132617       -0.3920651266
 C         -3.2644865778        1.3235683786       -1.5234800836
 C         -2.8098968401        2.6253625548       -1.6584134308
 C         -3.0804710751        3.5606150965       -0.6722945452
 C         -3.8031969083        3.2038567867        0.4555506415
 C         -4.2549002950        1.9021249859        0.5995273540
 H         -4.8074599434        1.5778922341        1.4674093828
 H         -4.0106508720        3.9325533323        1.2231237309
 H         -2.7221635145        4.5723313214       -0.7805994703
 H         -2.2369200750        2.9002220398       -2.5291286719
 H         -3.0526862782        0.5766473491       -2.2698318416
 H         -4.1353736761       -2.2589744244       -1.7418167467
 H         -2.2964480874       -3.7496331023       -2.0202230667
 H          0.0059484128       -4.3605504879       -1.3772613885
 H          1.2385029029       -2.9914046505        0.2646768025
 H          0.9378476398       -1.4787252135        2.2409558749
 C         -0.4247261915        0.1338368572        2.3924953669
 C          0.1752228347        1.3238955109        3.0780080681
 C         -0.8046410361        1.5176415722        1.9616641699
 H         -1.7972493390        1.8686822726        2.2041460706
 H         -0.4448280790        1.8660226854        1.0066441343
 H         -0.1381639395        1.5496236342        4.0861071132
 H          1.2170926678        1.5351463569        2.8855183916
 H         -1.1746442901       -0.4190800093        2.9517617325
