  62
        -98.94277651
 C         -1.9924612705       -1.4617876505       -0.0598750788
 C         -1.6961237204       -0.1419099997       -0.4772044211
 C         -2.8557797251        0.7198173973       -0.7552603537
 C         -4.0985153512        0.2303557209       -0.5999713427
 C         -5.3615079579        1.0185429093       -0.7878042049
 C         -5.8083455380        1.6696057454        0.5290312286
 C         -4.6939539614        2.4204611470        1.2584275443
 H         -5.1333449999        2.8588913108        2.1571126006
 H         -3.9376230200        1.7042742773        1.5878588185
 C         -4.0203814988        3.5225854869        0.4288285467
 H         -4.6572913917        3.7917246969       -0.4146546222
 H         -3.9142190145        4.4131805246        1.0517733351
 C         -2.6233127303        3.1681546586       -0.0842852418
 H         -2.0080117979        2.8094024864        0.7448576125
 H         -2.1616996781        4.0826918358       -0.4661941215
 C         -2.5740767682        2.1250274034       -1.2077523491
 H         -3.2547238406        2.4154732035       -2.0105957429
 H         -1.5562469550        2.1121779113       -1.6088867639
 H         -6.6307860096        2.3541922038        0.3135941193
 H         -6.1835930294        0.8863450296        1.1919071094
 H         -5.1986930622        1.7818543378       -1.5462468022
 H         -6.1438906255        0.3395485426       -1.1311111098
 O         -4.3454871156       -1.0411489538       -0.1924872285
 C         -3.3063891295       -1.9082646993        0.1041015476
 O         -3.6749868338       -3.0300690307        0.5050584911
 H          1.8186260201       -2.0892753575       -0.2202801164
 C          1.4974712833       -1.6974040521        0.7297506167
 C          0.1700160784       -1.7788264217        1.1192649350
 C         -0.2004898944       -1.2327118659        2.3464334748
 C          0.7304440542       -0.6103438257        3.1540875395
 C          2.0535063708       -0.5219336219        2.7570215284
 C          2.4364497610       -1.0684920033        1.5384147979
 N          3.7832041819       -1.0301765735        1.1365212319
 S          4.2568319267       -0.4891560408       -0.3735020268
 O          3.6019419101       -1.2541122786       -1.4020496355
 O          5.7018642700       -0.5675716725       -0.3440602087
 C          3.7689298234        1.2262258974       -0.4364197684
 C          4.7491201690        2.1937704806       -0.3210703476
 C          4.3807538974        3.5289517589       -0.3244221995
 C          3.0415216488        3.8734637115       -0.4314911007
 C          2.0715292996        2.8896244619       -0.5403826529
 C          2.4315703705        1.5503514735       -0.5452861467
 H          1.6827343176        0.7792675561       -0.6295612107
 H          1.0265114451        3.1446798890       -0.6190632655
 H          2.7519403720        4.9126400653       -0.4304017782
 H          5.1355815102        4.2943761950       -0.2412322986
 H          5.7768834428        1.8786004774       -0.2391043314
 H          4.4059425922       -0.6493510905        1.8350223169
 H          2.7837439332       -0.0362062517        3.3865662589
 H          0.4255013047       -0.1875208814        4.0996019721
 H         -1.2358490032       -1.2993634508        2.6541529491
 C         -0.8916324604       -2.4508642710        0.2820429879
 H         -1.3792286587       -3.2141611518        0.9117986670
 C         -0.3222469772       -3.1841294144       -0.9232366675
 C         -1.1546150932       -3.4485995183       -2.1413636621
 C         -0.0086560834       -2.4866443413       -2.2110574886
 H          0.8851062175       -2.7749245291       -2.7455837381
 H         -0.2245308528       -1.4320587352       -2.2737736465
 H         -1.0566460727       -4.4065123140       -2.6297332552
 H         -2.1591649620       -3.0507627804       -2.1593375751
 H          0.3546780069       -3.9806920461       -0.6279481204
 O         -0.5306454101        0.3098142409       -0.6113612809
