  62
        -98.94715701
 C          1.6115646888        1.5696647107       -0.2501789408
 C          2.7733988091        1.2322197512        0.4909325590
 C          3.5527527594        0.0972392314       -0.0132738611
 C          3.1563209294       -0.5410033088       -1.1291228410
 C          3.8599630497       -1.6988156586       -1.7843759811
 C          3.5126079504       -3.0699767687       -1.1882779309
 C          4.0855226908       -3.3405061984        0.2032424290
 H          3.9384872113       -4.4026231184        0.4093023691
 H          5.1607386807       -3.1590902179        0.1933344287
 C          3.4342226608       -2.5224512585        1.3274513091
 H          2.4843945005       -2.1097599189        0.9794231993
 H          3.2088366812       -3.1774515186        2.1718415692
 C          4.3015892404       -1.3817480281        1.8601911188
 H          3.7340012104       -0.8490281583        2.6273708089
 H          5.1994903807       -1.7904978978        2.3290491986
 C          4.7280761098       -0.3633488981        0.7942336286
 H          5.1479771596        0.5091683821        1.3005875485
 H          5.4923637098       -0.7927011078        0.1467541285
 H          3.9019257405       -3.8284266986       -1.8715517409
 H          2.4263149604       -3.1750429491       -1.1608088606
 H          3.5569461794       -1.6937658288       -2.8338726010
 H          4.9381819196       -1.5434947582       -1.7357658413
 O          2.0474845091       -0.1743108793       -1.8234825507
 C          1.2328025688        0.8647915504       -1.3923517806
 O          0.2348180285        1.0495790200       -2.1152556004
 H         -1.6672246016        2.2354465793       -0.9541727200
 C         -1.6409449512        1.8520588294        0.0532421800
 C         -0.5117774211        2.0406393399        0.8351046997
 C         -0.4957863706        1.5102063900        2.1223568898
 C         -1.5825841702        0.8105299996        2.6128676201
 C         -2.6987078603        0.6024601191        1.8208651304
 C         -2.7166676008        1.1171031490        0.5315930103
 N         -3.8193108709        0.8497972786       -0.3023208594
 S         -4.2929742803       -0.7555611116       -0.3821014092
 O         -4.8334263306       -0.9359395219       -1.7115730690
 O         -5.2050354600       -1.0351784419        0.7004386111
 C         -2.8078497899       -1.7257990210       -0.1686969494
 C         -1.7362776602       -1.4994527307       -1.0089559897
 C         -0.5834699899       -2.2488924702       -0.8393920799
 C         -0.5191274493       -3.2072411201        0.1597334501
 C         -1.6057965290       -3.4257122505        0.9923801004
 C         -2.7609197593       -2.6787369910        0.8291787606
 H         -3.6264155891       -2.8114331812        1.4579057408
 H         -1.5533805785       -4.1722027704        1.7683593504
 H          0.3823270310       -3.7859320898        0.2914230399
 H          0.2582654999       -2.0618599499       -1.4883401002
 H         -1.7870820907       -0.7413647108       -1.7746873898
 H         -3.7143582513        1.2317184885       -1.2317204094
 H         -3.5490093200        0.0425579688        2.1755594306
 H         -1.5577940898        0.4116622897        3.6153727101
 H          0.3901203595        1.6395487304        2.7278994195
 C          0.7328694185        2.6901730004        0.2842111794
 H          1.2937705185        3.1269933506        1.1208203292
 C          0.4658418778        3.7707886602       -0.7411287006
 C         -0.1186984926        5.0750523400       -0.2900142606
 C          1.3096090373        5.0087740605       -0.7378673809
 H          1.5749833969        5.4529273305       -1.6855995510
 H          2.0842165775        5.0849562509        0.0109971789
 H         -0.8362219629        5.5682624297       -0.9278732104
 H         -0.3145877524        5.1934125700        0.7649699195
 H          0.1616961377        3.3874467900       -1.7071553105
 O          3.1408865391        1.8532504514        1.5226003889
