  62
        -98.93899719
 C          0.4736533353        1.7999090214        0.6292722456
 C          1.2856337613        1.8246802729       -0.5292062165
 C          2.5767798872        1.1252754189       -0.4265662882
 C          2.8908169539        0.4910846096        0.7175431275
 C          4.1497573623       -0.2915306941        0.9637165243
 C          4.0685294798       -1.6709513580        0.2811077715
 C          5.0716712546       -1.8762852855       -0.8538094281
 H          6.0628025892       -2.0459919036       -0.4279702553
 H          4.7809663543       -2.7840107494       -1.3862590518
 C          5.1842589621       -0.7253706495       -1.8576603038
 H          5.7101679865       -1.1144065922       -2.7320812695
 H          5.8136398362        0.0635842177       -1.4431214632
 C          3.8577512170       -0.1050036423       -2.3154491382
 H          3.9353454124        0.1139768442       -3.3823536126
 H          3.0377961820       -0.8133517317       -2.1958495198
 C          3.4948348099        1.2170721738       -1.6142127008
 H          4.4107419272        1.7411763149       -1.3261976349
 H          2.9631545355        1.8554261743       -2.3262413921
 H          3.0541173205       -1.8031600966       -0.0994456412
 H          4.2348896710       -2.4506131766        1.0253437081
 H          5.0043337531        0.2702379363        0.5922892167
 H          4.2528710793       -0.4065101746        2.0429275056
 O          2.0529671318        0.4366864858        1.7867533522
 C          0.8336908437        1.0932221177        1.7752591376
 O          0.1724760139        0.9708718126        2.8273009938
 H         -1.4411568555       -0.0154528287        0.3013136505
 C         -1.9648959568        0.5927567502       -0.4211692301
 C         -1.7727318302        1.9690489357       -0.4123155540
 C         -2.4504550784        2.7415333380       -1.3455196870
 C         -3.2940416907        2.1425435145       -2.2654072536
 C         -3.4993810616        0.7757021034       -2.2559394006
 C         -2.8309502463       -0.0067243627       -1.3197794808
 N         -3.0126832498       -1.3964057814       -1.2811797884
 S         -3.0326965208       -2.2203566018        0.1759650337
 O         -3.8430305102       -3.3908762069       -0.0900583542
 O         -3.4725107492       -1.3763491052        1.2608099090
 C         -1.3514613904       -2.7533811418        0.4135278947
 C         -0.6035051509       -2.2802093054        1.4725127839
 C          0.6872725517       -2.7554765440        1.6461342636
 C          1.2014994914       -3.6960074162        0.7673006539
 C          0.4397208431       -4.1573126538       -0.2960256362
 C         -0.8484885142       -3.6827467527       -0.4766738018
 H         -1.4796506244       -4.0260678601       -1.2793436386
 H          0.8458659638       -4.8859458912       -0.9789993253
 H          2.2004298136       -4.0744450986        0.9154052449
 H          1.2804816140       -2.3784103054        2.4644653582
 H         -1.0283324556       -1.5492065716        2.1446975700
 H         -3.7017540570       -1.7545956571       -1.9260815473
 H         -4.1689796960        0.3136142775       -2.9653269874
 H         -3.8087922012        2.7517166306       -2.9929422116
 H         -2.3156052505        3.8103758072       -1.3579144776
 C         -0.8518250214        2.5393635823        0.6391499930
 H         -1.3069003646        2.3350917306        1.6203041841
 C         -0.6228992671        4.0306707996        0.5096242395
 C         -1.6104892015        4.9969391236        1.0889733917
 C         -0.2705143096        4.8168071927        1.7351380195
 H          0.4565387489        5.6102214870        1.6483616803
 H         -0.2203890928        4.2796599929        2.6715053904
 H         -2.4740738587        4.5875434572        1.5914844876
 H         -1.8030352518        5.9184699948        0.5606086785
 H         -0.1248299732        4.2974369819       -0.4151519208
 O          0.9585643549        2.4145252304       -1.5919320267
