  62
        -98.94141765
 C         -1.5470065407       -0.6680575102        0.9399449506
 C         -2.7880289906       -1.1158279306        0.4257255606
 C         -3.8499774908       -0.1001647809        0.3410206804
 C         -3.5954840511        1.1636212192        0.7234961302
 C         -4.5677268514        2.3030672990        0.6298230900
 C         -4.4396672414        3.0369378289       -0.7125069301
 C         -4.4391028111        2.1089787987       -1.9273806100
 H         -4.3744772212        2.7385985186       -2.8174746100
 H         -3.5378815410        1.4917309190       -1.9046523398
 C         -5.6718566209        1.2004085484       -2.0332743600
 H         -6.4755251910        1.5914123383       -1.4081318201
 H         -6.0289994908        1.2130769682       -3.0652384400
 C         -5.4138694206       -0.2627345315       -1.6688822198
 H         -4.5478763004       -0.6321440713       -2.2240497196
 H         -6.2801556004       -0.8499238717       -1.9853721598
 C         -5.1875255106       -0.5473223512       -0.1788084197
 H         -5.9959834908       -0.1057469314        0.4073560302
 H         -5.2154922704       -1.6320934912       -0.0407813196
 H         -5.2634152616        3.7482313587       -0.7964144902
 H         -3.5031385216        3.5991656991       -0.7117021600
 H         -5.5794356613        1.9209464788        0.7514797400
 H         -4.3544222116        3.0039591191        1.4385914699
 O         -2.3885147113        1.5600585996        1.2014332403
 C         -1.3399981211        0.6639418998        1.3138940605
 O         -0.2883416612        1.1625663001        1.7608663005
 O         -3.0241209302       -2.2956252607        0.0545706407
 C         -0.3376464305       -1.5784892199        1.0897191508
 C          0.3519618497       -1.7256418899       -0.2453942591
 C         -0.1502047001       -2.5438723402       -1.2516076690
 C          0.5060155001       -2.6352169602       -2.4655197890
 C          1.6746231899       -1.9300034799       -2.6942420889
 C          2.1785449496       -1.1010100397       -1.6984292390
 C          1.5091068495       -0.9988824797       -0.4876678291
 H          1.8915432793       -0.3429822895        0.2791999509
 N          3.3427612295       -0.3511286394       -1.9092154190
 S          4.4027531893       -0.0380705290       -0.6550339489
 O          5.6450290193        0.3000750012       -1.3170476588
 O          4.4637018695       -1.1392168889        0.2778806712
 C          3.7511681389        1.4177648709        0.1326715709
 C          3.5554769587        1.4291781110        1.4987998808
 C          3.0592557784        2.5762463010        2.0961877607
 C          2.7718578282        3.6873285108        1.3199206505
 C          2.9790399984        3.6621577007       -0.0508857995
 C          3.4742156587        2.5177953808       -0.6539732193
 H          3.6480931188        2.4603883007       -1.7157686693
 H          2.7515665682        4.5292640706       -0.6501843696
 H          2.3795171080        4.5765694208        1.7875352804
 H          2.8898675783        2.5950019211        3.1606951806
 H          3.7835242689        0.5397678112        2.0655828110
 H          3.8189784996       -0.5282078494       -2.7811930689
 H          2.1908444800       -2.0135848299       -3.6386731689
 H          0.1078422903       -3.2711826703       -3.2419031689
 H         -1.0676316000       -3.0853069904       -1.0828148091
 H          0.3529164393       -1.0447355697        1.7568808808
 C         -0.6591277102       -2.9198730399        1.7165786210
 C          0.4679639099       -3.7406714296        2.2648684612
 C         -0.5082824203       -3.0890894097        3.1969193810
 H         -1.2184430702       -3.7129891698        3.7186818410
 H         -0.1756238906       -2.2346799496        3.7686162209
 H          0.4301399502       -4.8128184096        2.1474082813
 H          1.4642129698       -3.3276954494        2.1990233812
 H         -1.4784438801       -3.4405337402        1.2400453410
