  62
        -98.94054600
 C         -2.5755676430       -0.2481584125       -0.4787429974
 C         -2.2132546672       -0.8885540912        0.7304331700
 C         -1.5460258303       -2.1906584997        0.5965460170
 C         -1.2987887558       -2.6780462720       -0.6324925003
 C         -0.4892147064       -3.9073503387       -0.9322873578
 C          1.0112112412       -3.5761849167       -0.7902058278
 C          1.7167727169       -4.3258609455        0.3400605247
 H          1.8750915324       -5.3627161005        0.0345486474
 H          2.6972496513       -3.8632884479        0.4700188319
 C          0.9877907362       -4.3371622690        1.6872742589
 H          0.2066769744       -5.0992716199        1.6742768269
 H          1.7150047469       -4.6485899492        2.4402109693
 C          0.3650239660       -3.0052014422        2.1257062588
 H          0.8654469339       -2.1617539062        1.6485495053
 H          0.5121210069       -2.8981087087        3.2027082031
 C         -1.1492653092       -2.8934386326        1.8645852264
 H         -1.6043706536       -3.8877492901        1.8915897086
 H         -1.5980882878       -2.2991185559        2.6659024841
 H          1.5243571708       -3.8020935562       -1.7269623576
 H          1.1125968956       -2.4992309625       -0.6313987457
 H         -0.7715176844       -4.7114104543       -0.2561066129
 H         -0.7176761788       -4.2102803330       -1.9544994990
 O         -1.6887784890       -2.0475277924       -1.7722840241
 C         -2.3111112592       -0.8112762961       -1.7249685125
 O         -2.5832501724       -0.3266639810       -2.8443863712
 H         -0.5390226512        1.2076493003       -0.9546863830
 C         -0.7879889015        1.9063428123       -0.1679062127
 C         -2.1129293309        2.0515030440        0.2248922091
 C         -2.4122683873        2.9735683751        1.2183439477
 C         -1.3992498546        3.6961805527        1.8265194589
 C         -0.0765595607        3.5041646215        1.4733845709
 C          0.2302853991        2.5994554754        0.4621518174
 N          1.5594753091        2.3815929013        0.0567574759
 S          1.9762172233        0.8325018222       -0.4753123118
 O          1.6336662300        0.7145756901       -1.8716515254
 O          1.4342146591       -0.1735042312        0.4082169068
 C          3.7498765146        0.9080454211       -0.3070739210
 C          4.4681881672        1.6321457400       -1.2402068933
 C          5.8441187574        1.7222966542       -1.1033795892
 C          6.4756703673        1.0899562298       -0.0422878205
 C          5.7420827508        0.3647767620        0.8843163114
 C          4.3648045469        0.2728246235        0.7547024469
 H          3.7530199027       -0.2823336473        1.4477577514
 H          6.2355234698       -0.1287188741        1.7059616573
 H          7.5468511476        1.1606661650        0.0613134327
 H          6.4177220662        2.2831756110       -1.8234352555
 H          3.9339461518        2.0965436446       -2.0526391509
 H          2.2346348278        2.7400934691        0.7186440614
 H          0.7125131613        4.0454667207        1.9727262944
 H         -1.6430722348        4.4035272065        2.6046793027
 H         -3.4346286411        3.1131075363        1.5293766045
 C         -3.1367682005        1.1632148950       -0.4430368424
 H         -3.2380106999        1.4786096648       -1.4923763091
 C         -4.4989087689        1.1980297186        0.2153065082
 C         -5.4922945999        2.2533210729       -0.1656733655
 C         -5.7031801824        0.8343874182       -0.5982827413
 H         -6.4880020814        0.2607370949       -0.1288517052
 H         -5.5399472237        0.5831291287       -1.6365002222
 H         -6.1383755552        2.6541082090        0.6006267973
 H         -5.1955878940        2.9712866088       -0.9153291116
 H         -4.4701649007        0.8638596532        1.2457493046
 O         -2.4315700205       -0.3933048069        1.8679770529
