  62
        -98.94250847
 C          1.4550517498        0.9453838402       -0.4273242319
 C          2.8051998797        1.3487750503       -0.5845786825
 C          3.8059339499        0.2736415204       -0.6149682815
 C          3.4022167702       -1.0020315195       -0.4757918201
 C          4.3160328604       -2.1921860993       -0.4436234290
 C          4.7451999107       -2.5263884477        0.9917653913
 C          5.2563355105       -1.3204190968        1.7797581200
 H          5.5586652007       -1.6798103357        2.7658126503
 H          4.4326306004       -0.6192172368        1.9322440194
 C          6.4318471203       -0.5841861873        1.1220403391
 H          6.9004881003       -1.2260585080        0.3751179397
 H          7.1842486004       -0.3728753363        1.8848652787
 C          6.0620224300        0.7538025320        0.4790193677
 H          6.9878320599        1.2855365319        0.2433348670
 H          5.5087283200        1.3650207726        1.1966063971
 C          5.2421535898        0.6688969605       -0.8146535921
 H          5.7338573099       -0.0069820702       -1.5176313615
 H          5.2195013296        1.6687102800       -1.2584214332
 H          5.5223451808       -3.2917833976        0.9504103820
 H          3.8856716608       -2.9419138373        1.5224568419
 H          5.1912698703       -1.9878086798       -1.0573830993
 H          3.7818427005       -3.0469817699       -0.8615332580
 O          2.1041263303       -1.3498537996       -0.2966240896
 C          1.0951439801       -0.3924793197       -0.2508189404
 O         -0.0356380198       -0.8660887897       -0.0494576498
 O          3.1581782195        2.5540107802       -0.6923608638
 C          0.3934942096        2.0307488500       -0.4021406429
 C         -0.5713867002        1.7863107810        0.7290485675
 C         -0.1057769900        1.8819511125        2.0380658573
 C         -0.9452984098        1.6353190535        3.1064379177
 C         -2.2662443598        1.2833244730        2.8919074282
 C         -2.7417250700        1.1895296215        1.5895271784
 C         -1.8983002501        1.4481345506        0.5179009280
 H         -2.2898514203        1.3616527294       -0.4810974318
 N         -4.0803505599        0.8552438610        1.3485754889
 S         -4.5620410300        0.0544970695       -0.0311021902
 O         -4.5200807503        0.9472975883       -1.1632583911
 O         -5.8755183998       -0.4547603204        0.3088686406
 C         -3.4502189497       -1.3163512906       -0.2787675189
 C         -3.1770203794       -2.1539321594        0.7826821120
 C         -2.3510983093       -3.2454651795        0.5773281630
 C         -1.8193641994       -3.4833089607       -0.6795460268
 C         -2.1076343197       -2.6357880019       -1.7357641276
 C         -2.9303955499       -1.5404921518       -1.5352154387
 H         -3.1701351601       -0.8500505727       -2.3282007394
 H         -1.6856939598       -2.8166059528       -2.7121614575
 H         -1.1682426893       -4.3294181007       -0.8348902760
 H         -2.1163597990       -3.9030911186        1.3991795737
 H         -3.6043201594       -1.9477745385        1.7507957118
 H         -4.6091548298        0.5695132118        2.1587401193
 H         -2.9237188397        1.0831157037        3.7241371085
 H         -0.5689602997        1.7102973746        4.1156227976
 H          0.9303931100        2.1437528129        2.2053380169
 H          0.9499736695        2.9576330503       -0.1833856340
 C         -0.3003076106        2.2473945985       -1.7384889830
 C          0.4310285993        2.0457341272       -3.0308145829
 C         -0.6758441505        1.1139063274       -2.6430852118
 H         -1.6144558806        1.1801301167       -3.1746689017
 H         -0.4238487303        0.1143833578       -2.3244582808
 H          0.2587268690        2.7472419864       -3.8332429236
 H          1.4468234494        1.6819084275       -2.9787893027
 H         -0.9909947007        3.0851321084       -1.7035236138
