  62
        -98.93413953
 C         -2.3155807505       -1.0744624293        0.0918116990
 C         -2.6314974502       -0.0460022192        1.0068294291
 C         -2.9117209598        1.2858337408        0.4411406191
 C         -2.8001416399        1.4651292708       -0.8874893409
 C         -3.0267173695        2.7198625109       -1.6921483509
 C         -2.4125620292        4.0125636007       -1.1324724809
 C         -3.4539292389        5.0025701810       -0.6073686709
 H         -3.0233891386        6.0060220209       -0.6313122409
 H         -4.3086502689        4.9980378012       -1.2868491508
 C         -3.9395426789        4.7421053311        0.8174402692
 H         -4.7702788487        5.4241742913        1.0125259492
 H         -3.1421470688        4.9907815909        1.5210494091
 C         -4.4031003793        3.3117765612        1.1006809892
 H         -4.9748113094        2.9210645414        0.2600078892
 H         -5.0779310992        3.3438124514        1.9585881792
 C         -3.2561615295        2.3508798109        1.4469435991
 H         -2.3491469793        2.9190225407        1.6755355591
 H         -3.5017094096        1.7989986410        2.3598153891
 H         -1.6865624792        3.7704674305       -0.3571468410
 H         -1.8637480491        4.4968660306       -1.9419691509
 H         -2.6025947196        2.5038557908       -2.6753939409
 H         -4.1019246795        2.8517180012       -1.8366779408
 O         -2.4639330102        0.4483124507       -1.7324159409
 C         -2.1968119705       -0.8299316993       -1.2757325410
 O         -1.8780963507       -1.6387561394       -2.1677799210
 O         -2.6731119202       -0.2296073292        2.2552394891
 C         -1.9748679908       -2.4572452994        0.6223729790
 C         -0.5179815009       -2.7213265698        0.3303765889
 C         -0.0473229313       -3.8218408099       -0.3720413911
 C          1.3001854987       -3.9402047103       -0.6708933411
 C          2.2038706190       -2.9704750705       -0.2769773112
 C          1.7444338093       -1.8789401104        0.4456371188
 C          0.4000440893       -1.7659311501        0.7506973189
 H          0.0471434796       -0.9001924300        1.2992615589
 N          2.6625385796       -0.8603082207        0.8240060788
 S          2.9161619098        0.2667729393       -0.4157813012
 O          1.9149924601        1.3124619295       -0.3364181111
 O          3.0200597996       -0.4397171708       -1.6663699912
 C          4.5097987700        0.9205592888        0.0432158487
 C          4.6027673104        2.1622846388        0.6399847387
 C          5.8509400306        2.6317406985        1.0193355087
 C          6.9769539603        1.8531974182        0.8005530086
 C          6.8669750000        0.6070377382        0.2011207786
 C          5.6225997398        0.1332828285       -0.1812776013
 H          5.4880703995       -0.8239440214       -0.6568118913
 H          7.7448584698        0.0046947580        0.0317568086
 H          7.9465214704        2.2205765979        1.0975555886
 H          5.9390174208        3.6009610184        1.4833673787
 H          3.7008585406        2.7351364790        0.7848794688
 H          2.3140959398       -0.3385538306        1.6192425988
 H          3.2485311889       -3.0367460808       -0.5318610012
 H          1.6472487384       -4.7952363104       -1.2308631412
 H         -0.7388585515       -4.5778646297       -0.7060305911
 H         -2.1031995208       -2.3934103994        1.7129016890
 C         -2.9153219812       -3.5083340992        0.0766345190
 C         -3.1272595515       -4.7859429591        0.8313219390
 C         -4.2147052312       -3.7566059588        0.7802859691
 H         -5.0917243213       -3.9588614986        0.1842472991
 H         -4.4158121410       -3.1782920688        1.6702214691
 H         -3.2602633117       -5.6989796391        0.2712942190
 H         -2.5913163615       -4.9112251593        1.7598386490
 H         -2.9179011412       -3.5437870792       -1.0066800810
