  62
        -98.93943331
 C         -2.6605067155       -1.2343407879       -0.0931859990
 C         -2.7305392398       -0.1073803775       -0.9468983956
 C         -4.0559343128        0.5159769514       -1.0726651474
 C         -5.0993246647       -0.0107312427       -0.4060099188
 C         -6.4879321843        0.5584654988       -0.3990556317
 C         -6.6761634409        1.5466329004        0.7606385673
 C         -5.5662012875        2.5924458731        0.8681898286
 H         -5.8204504787        3.2517373055        1.7010520251
 H         -4.6292235046        2.0943143047        1.1284480847
 C         -5.3573085308        3.4297325209       -0.4013387619
 H         -6.2356728970        3.3542343909       -1.0433743328
 H         -5.2536907718        4.4785365577       -0.1153570992
 C         -4.1086589579        3.0621839721       -1.2052771101
 H         -3.2380655767        3.0448966579       -0.5442950096
 H         -3.9396903812        3.8466027591       -1.9478351793
 C         -4.1684828321        1.7261329727       -1.9564185180
 H         -5.0783327981        1.6820559289       -2.5583557100
 H         -3.3070216785        1.6854753355       -2.6293324278
 H         -7.6383366722        2.0465388238        0.6354842943
 H         -6.7056405522        0.9818868926        1.6954080931
 H         -6.6759093473        1.0560438639       -1.3483508376
 H         -7.1962921642       -0.2634440846       -0.2826892388
 O         -4.9955807670       -1.1074961192        0.3881128165
 C         -3.7758457634       -1.7360747816        0.5765431766
 O         -3.8132412054       -2.7142566338        1.3508609680
 H          1.2260999428       -1.3241187006       -0.7312870734
 C          0.9287686724       -0.7609056238        0.1398258089
 C         -0.3294189077       -0.9508955124        0.6869753759
 C         -0.6786832945       -0.2159357845        1.8170703917
 C          0.2005153058        0.6961653117        2.3670605495
 C          1.4485606307        0.8995926789        1.8037394228
 C          1.8129682392        0.1635702845        0.6854133410
 N          3.0725662733        0.3719341357        0.0859204675
 S          4.4456573497        0.2730158796        1.0643206477
 O          4.5471812044       -1.0455665103        1.6533230980
 O          4.4394803348        1.3770157928        1.9892761124
 C          5.7257145945        0.5104249096       -0.1516780117
 C          5.9306616421        1.7861311374       -0.6418952013
 C          6.9088857360        1.9845430416       -1.6027815272
 C          7.6610547898        0.9102340655       -2.0550724878
 C          7.4437473598       -0.3638913461       -1.5531790824
 C          6.4654786021       -0.5696529444       -0.5927223666
 H          6.2668204767       -1.5413505107       -0.1696650828
 H          8.0315945630       -1.1962443315       -1.9053474908
 H          8.4230247158        1.0677363569       -2.8020532012
 H          7.0820270035        2.9737473372       -1.9949042387
 H          5.3273298976        2.5911402451       -0.2561826782
 H          3.1982680609       -0.2288695854       -0.7188295940
 H          2.1425529243        1.6077700172        2.2252883285
 H         -0.0878329445        1.2603503990        3.2417528823
 H         -1.6552158113       -0.3702938415        2.2573805831
 C         -1.3303381236       -1.9325458139        0.1262481803
 H         -1.5125607336       -2.7027275410        0.8901178618
 C         -0.8801199447       -2.6107673005       -1.1505810694
 C          0.0144401555       -3.8116590194       -1.0919148696
 C         -1.4253157146       -3.9670955985       -1.4776374002
 H         -1.6633628398       -4.1930536571       -2.5061710839
 H         -2.1037058639       -4.4129817589       -0.7647430833
 H          0.3194170166       -4.1609675275       -0.1167900086
 H          0.7639210532       -3.9364123510       -1.8591276572
 H         -0.7523540352       -1.9128785732       -1.9701385880
 O         -1.7410813166        0.3542590416       -1.5727488876
