  62
        -98.93925177
 C         -2.4793197347       -0.8409992749        0.7801779505
 C         -3.2256297763       -0.4635024835       -0.3628607989
 C         -3.9306689877        0.8240727385       -0.2694357891
 C         -3.8168800795        1.5616642255        0.8497856542
 C         -4.4378730402        2.9123707461        1.0552138411
 C         -3.4856894002        4.0351940786        0.6201229536
 C         -2.8768428540        3.8268339603       -0.7666608887
 H         -2.2475683749        4.6937521658       -0.9792944414
 H         -2.2214615584        2.9528399142       -0.7424848651
 C         -3.9062386159        3.6545999881       -1.8923093271
 H         -3.5986583843        4.2642986203       -2.7444422476
 H         -4.8790246788        4.0231482591       -1.5647433965
 C         -4.0540589630        2.2198107642       -2.4021742115
 H         -3.0689606830        1.8122229515       -2.6439971272
 H         -4.6330428787        2.2462264733       -3.3291662664
 C         -4.7583990011        1.2437069251       -1.4514941184
 H         -5.7093581317        1.6693569278       -1.1247237359
 H         -4.9654183320        0.3273387910       -2.0119139249
 H         -4.0336383679        4.9789254134        0.6405565356
 H         -2.6713066822        4.0989326308        1.3454275600
 H         -5.3655642351        2.9686542522        0.4891857182
 H         -4.6626713598        3.0295046006        2.1166657475
 O         -3.0696058759        1.1772143968        1.9164927674
 C         -2.3754569094       -0.0201387224        1.9035287936
 O         -1.7071179237       -0.2371224505        2.9360015318
 H          0.3589037623       -0.5224332303        0.9533070185
 C          0.4305594393       -1.1390490460        0.0650959708
 C         -0.5712290267       -2.0707726967       -0.1837395209
 C         -0.4730086733       -2.8647848659       -1.3171903993
 C          0.5968402377       -2.7137113319       -2.1837942479
 C          1.5863348374       -1.7803701388       -1.9385073221
 C          1.5028119630       -0.9867786503       -0.8004651228
 N          2.5027406933       -0.0264150036       -0.5415558939
 S          4.1018122066       -0.5666854291       -0.6614202023
 O          4.4700820191       -0.5893455945       -2.0546652643
 O          4.2585057873       -1.8147330524        0.0522139135
 C          4.9798474262        0.7412371091        0.1701988380
 C          5.2499326610        1.9050773985       -0.5244241831
 C          5.9197948526        2.9305791442        0.1234481478
 C          6.3065189041        2.7759954556        1.4465720803
 C          6.0289699748        1.6017372977        2.1300309339
 C          5.3576938515        0.5725523917        1.4885907402
 H          5.1287775304       -0.3606817274        1.9781130637
 H          6.3330564629        1.4832411637        3.1576005823
 H          6.8302432740        3.5744988508        1.9479629976
 H          6.1396785396        3.8444174287       -0.4045237867
 H          4.9394158186        1.9761539280       -1.5536926087
 H          2.3549811768        0.4301672753        0.3489804938
 H          2.4264794103       -1.6621807714       -2.6034494437
 H          0.6606856757       -3.3336424903       -3.0654997935
 H         -1.2360015419       -3.5952190336       -1.5285637964
 C         -1.7098495336       -2.1518477431        0.8052330602
 H         -1.2711862045       -2.2226840501        1.8109261054
 C         -2.6293501563       -3.3348004460        0.5944013034
 C         -2.1933255823       -4.6981032327        1.0371074564
 C         -3.2721624368       -3.9761829859        1.7857226800
 H         -4.2885570335       -4.3287528786        1.6950672047
 H         -3.0367965506       -3.5699192942        2.7588944473
 H         -1.2227861410       -4.7846146328        1.5022814356
 H         -2.4691143279       -5.5497271999        0.4340542512
 H         -3.2227054654       -3.2552629685       -0.3080513931
 O         -3.3092650065       -1.1601569966       -1.4069481878
