  62
        -98.93170680
 C         -1.8372178909        0.8861882521        0.5926834514
 C         -2.7055395581        1.0367705911       -0.5198251858
 C         -3.8196190083        0.0856194029       -0.6297048021
 C         -3.9394605288       -0.8814851829        0.2972523957
 C         -5.0523271506       -1.8884557368        0.3710769118
 C         -6.3226576156       -1.2291211268        0.9450791757
 C         -7.4884838522       -1.1431623051       -0.0402184551
 H         -7.9423964738       -2.1314230075       -0.1393582899
 H         -8.2372440020       -0.4788799479        0.3964594135
 C         -7.1388523861       -0.6451571611       -1.4457898821
 H         -6.6957307148       -1.4578284408       -2.0232766731
 H         -8.0810192249       -0.3921567529       -1.9366208932
 C         -6.2056518254        0.5706230518       -1.5137366165
 H         -6.2613889021        1.1503606759       -0.5922243321
 H         -6.5526560797        1.2202001408       -2.3198304345
 C         -4.7336187103        0.2328539932       -1.8147179921
 H         -4.6843410362       -0.6716217518       -2.4276239064
 H         -4.2996843388        1.0492853673       -2.3996702249
 H         -6.6562565653       -1.7855368114        1.8223305816
 H         -6.0609401984       -0.2267372888        1.2903641903
 H         -5.2451888255       -2.2954963756       -0.6191398311
 H         -4.7158255689       -2.6964653677        1.0211814275
 O         -3.0827384003       -1.0062526065        1.3415862239
 C         -2.0074939959       -0.1372458366        1.5250810387
 O         -1.3343081194       -0.3976232818        2.5371292179
 H          0.4409655508       -0.5869563575        0.3139161978
 C          0.8487169649        0.1523831772       -0.3601843335
 C          0.3910797735        1.4627050324       -0.3193153683
 C          0.9278611242        2.3867043385       -1.2092155057
 C          1.8948515311        2.0104087996       -2.1237436799
 C          2.3605493915        0.7085003425       -2.1500818524
 C          1.8349261926       -0.2218748747       -1.2612910339
 N          2.3067022006       -1.5547554052       -1.2414606558
 S          3.2560023744       -1.9556801977        0.0813539331
 O          3.7102000976       -3.3067148524       -0.1618896275
 O          2.5192060990       -1.7214354144        1.2941065263
 C          4.6364906206       -0.8287280625       -0.0298597595
 C          4.4944195841        0.4511770794        0.4685699610
 C          5.5378271731        1.3498748169        0.3109648684
 C          6.6967660948        0.9566009630       -0.3406812385
 C          6.8244156237       -0.3327887501       -0.8348818423
 C          5.7831508709       -1.2346172304       -0.6845153075
 H          5.8387272591       -2.2479868293       -1.0483114323
 H          7.7279490200       -0.6368881638       -1.3382395996
 H          7.5055922571        1.6596301231       -0.4619078444
 H          5.4384377329        2.3517429308        0.6962962638
 H          3.5815965603        0.7193295508        0.9757237392
 H          2.7994190032       -1.8162637897       -2.0852769846
 H          3.1184148896        0.4079436357       -2.8580962170
 H          2.2924819112        2.7358638589       -2.8163248811
 H          0.5622995112        3.4026364806       -1.1939090583
 C         -0.6848043166        1.8740874752        0.6549104952
 H         -1.1026612169        2.8248651308        0.2841387763
 C         -0.1440098033        2.1436668803        2.0491351614
 C          1.0417606223        1.4407725656        2.6299046593
 C          1.1540488928        2.8775925618        2.2228527748
 H          1.2235013622        3.6267062371        2.9968689389
 H          1.7194576401        3.1050753572        1.3314331352
 H          1.5273091151        0.6762504974        2.0431631937
 H          1.0047869660        1.1955542298        3.6805572286
 H         -0.9406977805        2.3836984390        2.7460833319
 O         -2.5514305598        1.9421070127       -1.3834828990
