  62
        -98.93725287
 C          1.3649397198        1.0906509000        0.0206652394
 C          1.8564329300       -0.0250752200        0.7351863693
 C          2.9059280500       -0.8294426099        0.0788478691
 C          3.3135862797       -0.4761136699       -1.1545536210
 C          4.3922173896       -1.1098597398       -1.9919587012
 C          5.8059852096       -0.7388217597       -1.5140766615
 C          6.0075419999       -0.7815206197       -0.0013915415
 H          5.2877482900       -0.1133834298        0.4749131586
 H          7.0048202400       -0.3874276397        0.2112615383
 C          5.9098776602       -2.1680794897        0.6303291385
 H          6.1504775004       -2.0590683297        1.6909231884
 H          6.6657194501       -2.8185566797        0.1843631783
 C          4.5495767802       -2.8592630698        0.5199420687
 H          4.5620760904       -3.7123884798        1.2047711787
 H          4.3982201600       -3.2668789598       -0.4761064612
 C          3.3592438002       -1.9952132699        0.9246573490
 H          3.5369634504       -1.5880977099        1.9263352789
 H          2.4803363303       -2.6431899299        1.0286670892
 H          6.0175549195        0.2798224403       -1.8483360916
 H          6.5200766396       -1.4070842897       -1.9982512516
 H          4.2612756696       -2.1877777498       -2.0168461412
 H          4.2603000693       -0.7359778598       -3.0098241612
 O          2.7883354995        0.5937106701       -1.8186869309
 C          1.8053079796        1.3958538700       -1.2660984407
 O          1.4138635594        2.3186177800       -2.0055313406
 H         -0.7104947002       -0.1914363701       -0.5920227602
 C         -1.3735236503        0.6605815999       -0.6837274501
 C         -1.0007753302        1.8730488299       -0.1180983202
 C         -1.8744624403        2.9472419698       -0.2365863100
 C         -3.0792580704        2.8083090798       -0.9050665097
 C         -3.4444014505        1.5976424897       -1.4659602097
 C         -2.5770270004        0.5205703398       -1.3562316398
 N         -2.9665971004       -0.7371929702       -1.8842755398
 S         -4.0518646202       -1.5467104903       -0.8899799895
 O         -4.1297522102       -2.8974563003       -1.3981401795
 O         -5.2831675302       -0.8011176004       -0.8566427293
 C         -3.2664342699       -1.5237299903        0.7104277003
 C         -2.3928257897       -2.5421688802        1.0358858401
 C         -1.6810849495       -2.4619795002        2.2215449600
 C         -1.8409380594       -1.3612670202        3.0486780400
 C         -2.7223215495       -0.3473771002        2.7076278502
 C         -3.4427959898       -0.4244737803        1.5265970903
 H         -4.1341037999        0.3456565997        1.2250806105
 H         -2.8425753095        0.5086204398        3.3519636102
 H         -1.2658679192       -1.2910322801        3.9581350599
 H         -0.9923383594       -3.2464676701        2.4911397599
 H         -2.2921207698       -3.3775212902        0.3605940701
 H         -2.1783277404       -1.3473602302       -2.0534270499
 H         -4.3873510506        1.4638723797       -1.9701842395
 H         -3.7445787005        3.6541021697       -0.9874844896
 H         -1.6120194703        3.8974706898        0.1989552200
 C          0.2912612199        1.9495753700        0.6577677596
 H          0.1087810201        1.4965576899        1.6449310896
 C          0.7888659399        3.3668343800        0.8551041695
 C          0.3410172201        4.1743214200        2.0357617596
 C          1.7419164601        3.6467002200        1.9773901193
 H          2.5517564000        4.3398582901        1.8061147691
 H          2.0046756303        2.8198438101        2.6210893892
 H         -0.3430783298        3.7109165999        2.7302141397
 H          0.1898185800        5.2355014399        1.9064416096
 H          0.9588755597        3.8810128100       -0.0841343005
 O          1.4378086203       -0.3431688700        1.8803837994
