  62
        -98.94273660
 C         -1.3069277096       -1.5625377919       -0.3297662914
 C         -0.1458773085       -1.6713667969       -1.1258503018
 C          1.0088476679       -2.3623467273       -0.5263575307
 C          0.9308262555       -2.7845561022        0.7493456556
 C          1.9222922949       -3.5245574712        1.6237751880
 C          3.3531566838       -3.7609832010        1.1511768178
 C          4.2231388458       -2.5042386734        1.1180973902
 H          4.4387542923       -2.2084679400        2.1481636503
 H          5.1717256015       -2.7545641917        0.6378788365
 C          3.6160676040       -1.2919316654        0.4152909365
 H          2.7004471258       -0.9806196464        0.9252299540
 H          4.3288705264       -0.4674703469        0.5131005688
 C          3.3234137572       -1.4766926925       -1.0717520409
 H          4.2368054209       -1.7739181847       -1.5914153717
 H          3.0074749321       -0.5076393096       -1.4671460460
 C          2.2203281109       -2.4918661199       -1.4058618908
 H          2.6025364034       -3.5096948215       -1.3855164146
 H          1.8773006456       -2.2890965796       -2.4248925143
 H          3.3512246950       -4.2569773937        0.1850286484
 H          3.8073457045       -4.4557415085        1.8629147885
 H          1.9430685912       -2.9809295567        2.5743394094
 H          1.4590321281       -4.4948302054        1.8351214513
 O         -0.2001003710       -2.6163769933        1.4960157938
 C         -1.3292291853       -1.9955397081        0.9942837623
 O         -2.2699666694       -1.9048056113        1.8072960409
 O         -0.0755817205       -1.2156983551       -2.3003930826
 C         -2.5234176048       -0.8423266522       -0.8849810450
 C         -2.7638864763        0.3963283180       -0.0582680719
 C         -3.9949656947        0.7532539558        0.4739304777
 C         -4.1064394411        1.8742690528        1.2795318944
 C         -3.0010945613        2.6488845201        1.5784045998
 C         -1.7674916738        2.3095095307        1.0321484180
 C         -1.6666597910        1.2095290997        0.1985887504
 H         -0.7064386028        0.9423988833       -0.2182552221
 N         -0.6252411965        3.0818729825        1.2864990521
 S          0.9081764553        2.4218233380        1.2525180296
 O          0.9249636782        1.0319752053        1.6489644048
 O          1.7040390308        3.3128612359        2.0727684982
 C          1.4534438929        2.5926424345       -0.4364139298
 C          2.7410498266        2.1760545917       -0.7117860043
 C          3.2333740948        2.3050589120       -2.0004233730
 C          2.4307428243        2.8482914021       -2.9914869341
 C          1.1428857673        3.2672314575       -2.6988955693
 C          0.6459875929        3.1438052815       -1.4100712092
 H         -0.3536616437        3.4603437169       -1.1624353927
 H          0.5191029830        3.6888827401       -3.4706564611
 H          2.8112232917        2.9442269480       -3.9960882984
 H          4.2363931830        1.9793928632       -2.2260134323
 H          3.3284762516        1.7576055689        0.0899723500
 H         -0.7216671791        3.7932198023        1.9949499290
 H         -3.0854028145        3.5046696115        2.2305318278
 H         -5.0664888529        2.1375731750        1.6969917464
 H         -4.8626896854        0.1460335316        0.2754645907
 H         -2.2428999419       -0.5332228638       -1.9027962485
 C         -3.7176406122       -1.7681710580       -0.9627103335
 C         -4.7943439595       -1.5251569431       -1.9769258961
 C         -3.8535566863       -2.6790858186       -2.1446851765
 H         -4.2263637512       -3.6793898139       -1.9835884543
 H         -3.0934293765       -2.6148297909       -2.9094303186
 H         -5.8171968178       -1.7355287241       -1.7033486849
 H         -4.6780024539       -0.6777759611       -2.6352452483
 H         -4.0026404601       -2.1603903297        0.0070835831
