  62
        -98.93728817
 C         -1.8768614889       -0.4893714988       -0.7824729037
 C         -2.2534004959       -0.1191452193        0.5292840292
 C         -3.6945568169       -0.1867735165        0.8357363144
 C         -4.5485591351       -0.5966744094       -0.1182384952
 C         -6.0467220136       -0.6909627714       -0.0277248584
 C         -6.7052357802        0.5965367910       -0.5515912981
 C         -6.8792184767        1.7004118951        0.4907459631
 H         -7.2306497745        2.5911213480       -0.0351856368
 H         -7.6599682753        1.4075606798        1.1959385901
 C         -5.6174510577        2.0605803925        1.2794321335
 H         -4.7617135096        2.1068609519        0.6035274807
 H         -5.7566332197        3.0609584477        1.6938412295
 C         -5.3237968083        1.0839784678        2.4280403946
 H         -6.1986659542        0.4553131070        2.5930886260
 H         -5.1698289246        1.6473497791        3.3507053013
 C         -4.0816697249        0.2007494614        2.2368874351
 H         -4.1978526145       -0.7118431834        2.8311129333
 H         -3.2016338078        0.7181637536        2.6316318917
 H         -7.6913196774        0.3488650320       -0.9498225515
 H         -6.1007416594        0.9667761976       -1.3835963557
 H         -6.3454389783       -1.5209087308       -0.6716259875
 H         -6.3591265434       -0.9072325043        0.9895495179
 O         -4.1400517960       -0.9483890064       -1.3694967389
 C         -2.8074147187       -0.9038428906       -1.7337359131
 O         -2.5793234745       -1.2570599435       -2.9091564428
 O         -1.4294775836        0.2533399583        1.4047296787
 C         -0.4167409421       -0.4480878756       -1.1903270712
 C          0.4210120955       -1.3340675179       -0.2995450448
 C         -0.0870604509       -2.5589895985        0.1247004868
 C          0.6605468711       -3.3941876873        0.9313180699
 C          1.9429771693       -3.0393100632        1.3106572958
 C          2.4689481828       -1.8297026961        0.8763649952
 C          1.7067491291       -0.9824672945        0.0830652080
 H          2.1339533814       -0.0481056497       -0.2413097063
 N          3.7659428779       -1.4392609271        1.2417196712
 S          4.7668690911       -0.7254155598        0.1063128774
 O          4.4908523685       -1.2076568892       -1.2266916411
 O          6.1070591024       -0.9620152113        0.6010122409
 C          4.4228031344        1.0177331368        0.2157185706
 C          4.1718631805        1.5792183680        1.4520417260
 C          3.9555617025        2.9455049161        1.5339447365
 C          4.0029875262        3.7248902588        0.3878774596
 C          4.2623711232        3.1467384364       -0.8450199919
 C          4.4744717043        1.7795885331       -0.9346308327
 H          4.6666710050        1.2874609780       -1.8747151473
 H          4.2988778580        3.7533981096       -1.7360956465
 H          3.8356772534        4.7883584578        0.4553754315
 H          3.7503477218        3.3981929168        2.4906969422
 H          4.1398314249        0.9452965504        2.3222763518
 H          4.2666904805       -2.1086323070        1.8080824376
 H          2.5311061076       -3.6932842500        1.9365837942
 H          0.2455791713       -4.3351206507        1.2605444232
 H         -1.0840363301       -2.8462175180       -0.1814376102
 H         -0.3732539047       -0.8623233615       -2.2092985967
 C          0.0658271263        0.9881937064       -1.2289847245
 C          1.1070092591        1.4172498440       -2.2170858282
 C         -0.3177694149        1.8449340043       -2.3967604421
 H         -0.5730552335        2.8784051377       -2.2176954560
 H         -0.8990122615        1.3802560928       -3.1803578133
 H          1.8285231015        2.1597902657       -1.9110896884
 H          1.5032592172        0.6672832600       -2.8856178034
 H          0.0701909712        1.4491409372       -0.2478559587
