  62
        -98.93825467
 C         -1.9008983603       -0.9405820699       -0.3020096949
 C         -3.0325673492       -1.1277230999        0.5305191614
 C         -4.3101506231       -0.5872890394        0.0400717075
 C         -4.3424607178        0.0559787663       -1.1394777104
 C         -5.5296730986        0.6569845289       -1.8494019747
 C         -6.5357717507        1.4484631754       -1.0026684256
 C         -5.9292343095        2.2062251990        0.1874580901
 H         -4.8404499016        2.2161333861        0.1106359408
 H         -6.2661793503        3.2441097274        0.1560033961
 C         -6.3402424755        1.6201869727        1.5404429280
 H         -7.4054193964        1.3806391626        1.5089679920
 H         -6.1997269337        2.3828682491        2.3102191000
 C         -5.5614608032        0.3820599420        1.9829916722
 H         -6.0263530641        0.0009234558        2.8953805244
 H         -4.5360629308        0.6622101576        2.2389903515
 C         -5.4895636471       -0.7577811115        0.9537944267
 H         -5.3178409268       -1.6905122197        1.4977810096
 H         -6.4197968170       -0.8464861142        0.3980807619
 H         -7.3122886076        0.7778634186       -0.6373085855
 H         -7.0239987612        2.1567785223       -1.6742477305
 H         -6.0563582911       -0.1473313787       -2.3713082676
 H         -5.1017783237        1.3096523174       -2.6142489117
 O         -3.2274671114        0.2240958887       -1.9038968897
 C         -1.9866253158       -0.2546817375       -1.5123061618
 O         -1.0738858314       -0.0097936986       -2.3248930805
 O         -2.9798837933       -1.7330650104        1.6334385585
 C         -0.5647734145       -1.4743333302        0.1875720940
 C          0.2984612344       -0.3063041015        0.5937943525
 C          0.1816180322        0.2230034707        1.8756101444
 C          0.9410024628        1.3115107153        2.2642674094
 C          1.8290916642        1.8995477258        1.3801379079
 C          1.9440648779        1.3841688088        0.0964757522
 C          1.1929758671        0.2820542105       -0.2875804089
 H          1.2817200065       -0.0981239945       -1.2930384743
 N          2.8534251002        1.9770424243       -0.8080479885
 S          4.4698198858        1.8322829989       -0.3908338259
 O          4.7357885268        2.6696434596        0.7510667071
 O          5.2165964999        2.1300411176       -1.5917486985
 C          4.6555836596        0.1148080724        0.0514969213
 C          4.9066017833       -0.8016026838       -0.9500712117
 C          4.9656393218       -2.1475163560       -0.6276064702
 C          4.7588562213       -2.5527147981        0.6821219737
 C          4.5048784308       -1.6199729174        1.6755587437
 C          4.4515376598       -0.2716233015        1.3608363260
 H          4.2613339490        0.4841615938        2.1048481136
 H          4.3443932001       -1.9375409359        2.6932796028
 H          4.7961792989       -3.6019699394        0.9292726769
 H          5.1680442529       -2.8751803815       -1.3972617240
 H          5.0634249311       -0.4444672383       -1.9554545199
 H          2.7187958363        1.6585817093       -1.7576553646
 H          2.4378543850        2.7427013978        1.6646169099
 H          0.8406125075        1.7079224217        3.2633394437
 H         -0.5211252185       -0.2270109494        2.5627790389
 H         -0.8005486136       -2.0511758767        1.0917355027
 C          0.1043578549       -2.3899601428       -0.8167383310
 C          1.3050572987       -3.1794702080       -0.3903191846
 C          0.0017837902       -3.8742577291       -0.6430583829
 H         -0.0937816812       -4.4891711116       -1.5254066151
 H         -0.5557619452       -4.2411982585        0.2060057083
 H          2.1093410690       -3.3163932464       -1.0964250212
 H          1.6341275731       -3.0676071121        0.6315491652
 H          0.0825591725       -2.0089114691       -1.8301565446
