  62
        -98.93918025
 C         -2.2188664160       -0.9158538515       -0.0296773869
 C         -3.1980274775       -0.6404677987        0.9551990407
 C         -4.0589111278        0.5380777009        0.7414222526
 C         -3.8517817072        1.2981039156       -0.3499775997
 C         -4.6148493700        2.5163821846       -0.7976502883
 C         -5.9806271668        2.1671826633       -1.4105120329
 C         -6.7852136325        1.1274612483       -0.6349613551
 H         -7.6773219530        0.8939266329       -1.2219679162
 H         -6.2006031844        0.2092527305       -0.5552095000
 C         -7.2417893284        1.5619861985        0.7556754859
 H         -7.8819592860        0.7681864662        1.1488677935
 H         -7.8496334141        2.4651287663        0.6672637368
 C         -6.1297923090        1.8216815539        1.7744701935
 H         -6.5982053964        1.8688050007        2.7618615940
 H         -5.6624724874        2.7888086855        1.6093475007
 C         -5.0664317388        0.7306638305        1.8493782536
 H         -4.4741733044        0.8829333210        2.7597553327
 H         -5.5564296260       -0.2401647082        1.9849092762
 H         -5.8084635466        1.7737479592       -2.4154212917
 H         -6.5613541309        3.0864681127       -1.5034048027
 H         -4.0048131879        3.0043151376       -1.5612690994
 H         -4.7271300152        3.2117419056        0.0288471266
 O         -2.8826121066        1.0063311509       -1.2636312256
 C         -2.0458082759       -0.0869438038       -1.1371902833
 O         -1.2208983520       -0.2018808564       -2.0657280883
 O         -3.3590105478       -1.3577833625        1.9788690932
 C         -1.3137076742       -2.1184557752        0.1855378000
 C          0.0570911246       -1.6060452896        0.5514503792
 C          0.3430674436       -1.3043497876        1.8800027271
 C          1.5629367999       -0.7582934108        2.2327528709
 C          2.5187369912       -0.4904208298        1.2679826099
 C          2.2358503312       -0.7717596640       -0.0613736258
 C          1.0205662227       -1.3449386391       -0.4106587999
 H          0.8082216072       -1.5434054736       -1.4493286242
 N          3.1926711620       -0.4822666268       -1.0513886545
 S          3.8642881523        1.0577482534       -1.0512498401
 O          2.9697408907        2.0360785434       -0.4761134833
 O          4.2846638517        1.2901765004       -2.4161707536
 C          5.3133555034        0.8806250153       -0.0291198843
 C          6.2131118752       -0.1198833976       -0.3413479130
 C          7.3499351931       -0.2644474883        0.4376315453
 C          7.5690533243        0.5910255743        1.5072445956
 C          6.6583766594        1.5929497962        1.8054132813
 C          5.5182642273        1.7420325247        1.0308146182
 H          4.7791246464        2.5022280346        1.2282988983
 H          6.8299609706        2.2574833581        2.6369670736
 H          8.4543866640        0.4760744125        2.1124400037
 H          8.0600848536       -1.0427079137        0.2090048295
 H          6.0068609530       -0.7607863598       -1.1820963371
 H          2.8820380690       -0.7242399721       -1.9820504510
 H          3.4668896385       -0.0516200518        1.5327313436
 H          1.7715684903       -0.5334455342        3.2676695478
 H         -0.4131840514       -1.4873954554        2.6303968133
 H         -1.7275467503       -2.6383370672        1.0597775716
 C         -1.3183791616       -3.0684478304       -0.9933419638
 C         -0.7561375221       -4.4469263718       -0.8208635481
 C         -2.2340808955       -4.2541483036       -0.9739031958
 H         -2.7022486331       -4.5570991303       -1.8985335157
 H         -2.8601721386       -4.3876915256       -0.1039543819
 H         -0.2070541030       -4.8863139442       -1.6394636173
 H         -0.3776429055       -4.7097799108        0.1552252953
 H         -1.1718809117       -2.5760660145       -1.9467031935
