  62
        -98.93465084
 C         -2.3399423400       -1.1890024517        0.1079762892
 C         -3.2600229894       -0.5156446921        0.9476046496
 C         -4.1428429572        0.4783157506        0.3125457955
 C         -4.0017408127        0.7393148700       -1.0003844335
 C         -4.7735809931        1.6582571399       -1.9241669643
 C         -5.7124164587        2.7223114221       -1.3618804365
 C         -5.0160494879        3.8555872567       -0.6089920125
 H         -4.4562783436        4.4582021580       -1.3286970710
 H         -5.7831678762        4.4943303036       -0.1659959049
 C         -4.0411842470        3.4209761988        0.4826349836
 H         -3.6121285254        4.3234173109        0.9269381838
 H         -3.2168047370        2.8604115275        0.0363663457
 C         -4.6509008612        2.5929555127        1.6122158244
 H         -5.4986701916        3.1282187411        2.0441550982
 H         -3.8906855336        2.4881199696        2.3914913610
 C         -5.1112863913        1.1775813347        1.2226852532
 H         -5.1624236367        0.5775484070        2.1360526037
 H         -6.1069606949        1.1920191696        0.7857369975
 H         -6.2291140781        3.1647339707       -2.2178698633
 H         -6.4738600942        2.2620361270       -0.7391507810
 H         -4.0230086518        2.1411828815       -2.5579232402
 H         -5.3518408148        0.9989692339       -2.5809643581
 O         -3.0625472358        0.1038701091       -1.7591262162
 C         -2.2083038664       -0.8593484455       -1.2406248869
 O         -1.4036010712       -1.3158624894       -2.0718456802
 O         -3.3448360215       -0.7367581039        2.1861704577
 C         -1.4289981502       -2.2238496966        0.7422144981
 C          0.0037053236       -1.9803564298        0.3367174024
 C          0.8096505529       -2.9360455008       -0.2661149536
 C          2.1194845406       -2.6375015763       -0.6001285956
 C          2.6521093922       -1.3880080438       -0.3452591272
 C          1.8566321140       -0.4243619870        0.2615088197
 C          0.5493744895       -0.7301051026        0.6049613965
 H         -0.0706262814        0.0222892128        1.0791093560
 N          2.3833507211        0.8561075665        0.5074914195
 S          3.8563526298        0.9724700538        1.3044392081
 O          4.0647541352       -0.1458606755        2.1950698318
 O          3.8524964198        2.2852810157        1.9127604063
 C          5.0619723013        0.9436990247       -0.0049910679
 C          6.0747340712        0.0047982135        0.0125193113
 C          7.0078630239        0.0068229856       -1.0126409805
 C          6.9129974068        0.9435420551       -2.0303441196
 C          5.8915004282        1.8818546947       -2.0314225318
 C          4.9560417770        1.8858851039       -1.0091893475
 H          4.1494447893        2.5990626945       -0.9717362140
 H          5.8206978107        2.6086325110       -2.8246259841
 H          7.6390582279        0.9425611560       -2.8279124328
 H          7.8027728915       -0.7214929274       -1.0135609167
 H          6.1050576669       -0.7074538456        0.8216081755
 H          1.7148722031        1.5021787473        0.9011438888
 H          3.6686659381       -1.1504927855       -0.6127808523
 H          2.7324718283       -3.3885241175       -1.0746259913
 H          0.4081772338       -3.9095025127       -0.4937304738
 H         -1.5060326875       -2.0249894110        1.8251538007
 C         -1.8804816825       -3.6624026995        0.5386624445
 C         -3.3203100656       -3.9931151577        0.2858538992
 C         -2.3055368787       -4.1887912755       -0.7982670816
 H         -2.0286783156       -5.1991029138       -1.0619907380
 H         -2.2982059910       -3.5020304251       -1.6297273840
 H         -3.7377805332       -4.8648890060        0.7670216853
 H         -4.0150550177       -3.1706919350        0.1940216638
 H         -1.3393704743       -4.3493440772        1.1823898370
