  62
        -98.94442538
 C         -1.9216698733       -0.8224150940        0.0109438714
 C         -2.4166046293        0.4883185865        0.2133190252
 C         -3.8303236420        0.5788945804        0.6014887935
 C         -4.5538322370       -0.5432999600        0.7671695721
 C         -5.9975838743       -0.6131140813        1.1853769123
 C         -6.9914116650       -0.4385359338        0.0289397128
 C         -7.1035635759        0.9831182519       -0.5229848061
 H         -7.9820941838        1.0069734041       -1.1708352451
 H         -7.2857908811        1.6772695411        0.2979900856
 C         -5.8830518775        1.4471415093       -1.3302241886
 H         -5.2845279294        0.5797119381       -1.6180512525
 H         -6.2173437048        1.9251398018       -2.2538596181
 C         -4.9845333014        2.4474783857       -0.6026957188
 H         -5.5349978022        3.3744557073       -0.4268166764
 H         -4.1345672412        2.6789011376       -1.2499261735
 C         -4.4343709250        1.9437554216        0.7381424848
 H         -5.2228698409        1.9392000183        1.4904864038
 H         -3.6434304539        2.6247687599        1.0623339745
 H         -7.9747740876       -0.7411394686        0.3960836242
 H         -6.7130450616       -1.1212737827       -0.7771220188
 H         -6.1471870156       -1.6034320450        1.6208106203
 H         -6.1938083222        0.1369900571        1.9519707226
 O         -4.0311785843       -1.7856748289        0.5873550988
 C         -2.7151284887       -1.9555106684        0.1891507088
 O         -2.3716506893       -3.1459270527        0.0406624004
 O         -1.7192879992        1.5276633763        0.0821289895
 C         -0.4809914518       -1.0302888628       -0.4215591685
 C          0.4530660331       -0.3932391407        0.5779529739
 C          0.3005623707       -0.7072895236        1.9268192110
 C          1.1153317141       -0.1347031982        2.8829114676
 C          2.1116071049        0.7529411292        2.5141043875
 C          2.2795900552        1.0658690950        1.1715603879
 C          1.4569012876        0.4886715653        0.2120078732
 H          1.6013332529        0.7657918562       -0.8182183875
 N          3.2755760304        1.9715690404        0.7709959838
 S          4.2565179844        1.6182213127       -0.5353603648
 O          5.3804490502        2.5179031175       -0.3979867460
 O          3.5128028403        1.7115101856       -1.7647734627
 C          4.7814956809       -0.0612483001       -0.2464663841
 C          4.1322568578       -1.1019958407       -0.8781574745
 C          4.5077978557       -2.4028038287       -0.5809550615
 C          5.5190246238       -2.6387676334        0.3372363209
 C          6.1656392661       -1.5813646232        0.9594373866
 C          5.7920180139       -0.2794366525        0.6699419382
 H          6.2761325722        0.5702318290        1.1235249593
 H          6.9555298169       -1.7683566722        1.6689451640
 H          5.8058686591       -3.6529692114        0.5665216817
 H          4.0073784123       -3.2261692406       -1.0654515134
 H          3.3544913743       -0.8793484525       -1.5896315612
 H          3.8174841474        2.3553150633        1.5314212610
 H          2.7443981512        1.2088953606        3.2603172365
 H          0.9766537850       -0.3811708169        3.9248028795
 H         -0.4795380108       -1.3993725168        2.2144510094
 H         -0.3136874372       -2.1172280693       -0.4040577317
 C         -0.2894772179       -0.5310506177       -1.8382399109
 C          0.7120287814       -1.1835157470       -2.7411166041
 C         -0.7541829885       -1.3836382886       -2.9789910837
 H         -1.2127580605       -0.9019152303       -3.8295845430
 H         -1.1850843730       -2.3442386102       -2.7356268187
 H          1.2686214548       -0.5629195857       -3.4281734903
 H          1.2689241636       -2.0193107974       -2.3445889021
 H         -0.4374825081        0.5393205912       -1.9290739190
