  62
        -98.94408941
 C          2.0900600010       -0.8973384026       -0.1427083642
 C          2.4626771539        0.4093622282        0.2556012850
 C          3.7696622165        0.8731796974       -0.2296250671
 C          4.5070860031        0.0862581399       -1.0333647421
 C          5.8458502160        0.4305563949       -1.6274867840
 C          7.0317653504        0.1641592579       -0.6902239714
 C          7.1716752241        1.1432302532        0.4760900463
 H          8.1554178996        0.9753550488        0.9190000930
 H          7.1566949090        2.1648897454        0.0951353316
 C          6.1051480806        0.9834133939        1.5684587035
 H          5.6204317353        0.0100123212        1.4643183260
 H          6.5843676065        0.9988131405        2.5499591776
 C          5.0320428310        2.0723062406        1.5713748390
 H          5.4885328500        3.0364975105        1.8061002865
 H          4.3109905028        1.8408803793        2.3594980951
 C          4.2630541870        2.2048479376        0.2502026495
 H          3.3905164609        2.8401266283        0.4220083289
 H          4.8924609611        2.6737128750       -0.5058981392
 H          6.9494973607       -0.8541770136       -0.3034061555
 H          7.9413824884        0.2181121193       -1.2927902839
 H          5.9614918667       -0.1950648188       -2.5151956328
 H          5.8519988900        1.4761839985       -1.9367051715
 O          4.0938108421       -1.1477641036       -1.4267393969
 C          2.8915252317       -1.6721412057       -0.9842853265
 O          2.6479612785       -2.8208008577       -1.4054291427
 H         -0.8950471905        0.4389963918        1.3199148414
 C         -1.1003594280        0.2105465955        0.2864667223
 C         -0.3523589051       -0.7533485108       -0.3703844298
 C         -0.6261931070       -1.0118196928       -1.7109702523
 C         -1.6166807913       -0.3156310219       -2.3773434268
 C         -2.3537677459        0.6557592844       -1.7222016719
 C         -2.0869756310        0.9213106581       -0.3860243170
 N         -2.8304317555        1.9065485812        0.2845423591
 S         -4.4919505572        1.9017239905        0.1022144148
 O         -4.8471747772        2.5083926710       -1.1566033979
 O         -5.0067772394        2.5538819846        1.2855432969
 C         -4.9429931463        0.1754508569        0.0917665949
 C         -5.4670581054       -0.3969632517       -1.0489562938
 C         -5.7638106569       -1.7507238270       -1.0437027848
 C         -5.5288037682       -2.5048324226        0.0951889293
 C         -5.0057019895       -1.9139815159        1.2354598677
 C         -4.7072482700       -0.5615000371        1.2357071948
 H         -4.3059014021       -0.0691595050        2.1068070847
 H         -4.8262455187       -2.5024480076        2.1208872815
 H         -5.7559157189       -3.5592722658        0.0961718895
 H         -6.1732291262       -2.2123811201       -1.9277906265
 H         -5.6340652554        0.2251275828       -1.9130397232
 H         -2.5591449819        2.0402701059        1.2471689340
 H         -3.1194536226        1.2204549463       -2.2288843307
 H         -1.8158151283       -0.5265676454       -3.4170336164
 H         -0.0402837892       -1.7612458051       -2.2252739786
 C          0.7694889701       -1.5075981038        0.3005394941
 H          0.7677043797       -2.5332243179       -0.0918546697
 C          0.6588481551       -1.5639935587        1.8096119282
 C         -0.3761846307       -2.4473804305        2.4368815307
 C          1.0746002999       -2.8125468771        2.5250451380
 H          1.5750009652       -2.7176289787        3.4772411779
 H          1.4336769320       -3.6360717876        1.9251017104
 H         -0.8733870115       -2.1059596038        3.3319471833
 H         -1.0036246700       -3.0240514814        1.7744488395
 H          0.8853970719       -0.6213802597        2.2922193337
 O          1.7547796717        1.1560447327        0.9806048664
