  62
        -98.95136434
 C         -2.3395760847       -0.0617513604        0.1119076985
 C         -1.6001012844        0.4943054255       -0.9584607526
 C         -1.4220883605        1.9507111229       -0.9253290658
 C         -1.8714864357        2.6514597458        0.1315655576
 C         -1.7707138425        4.1413731332        0.3162021270
 C         -0.4114304052        4.6104853720        0.8524964120
 C          0.7278037094        4.6018691621       -0.1672496007
 H          0.4079847035        5.1194311712       -1.0728087432
 H          1.5480748672        5.1772947077        0.2667200140
 C          1.2482909685        3.2032444181       -0.5265596713
 H          0.9491091479        2.4882075244        0.2437513960
 H          2.3417859424        3.2140276652       -0.5325556964
 C          0.7970059411        2.6880630512       -1.8923756184
 H          1.2100148826        1.6863770902       -2.0249705758
 H          1.2064184548        3.3289866422       -2.6770491158
 C         -0.7234545725        2.6095383338       -2.0782928487
 H         -1.1309022785        3.6090059883       -2.2335735049
 H         -0.9249194073        2.0085564326       -2.9688575072
 H         -0.5389683646        5.6333276781        1.2153531985
 H         -0.1366743048        3.9848329160        1.7055699365
 H         -1.9847902867        4.6451673290       -0.6271860136
 H         -2.5412161864        4.4160898306        1.0400229590
 O         -2.5120858187        2.0686594992        1.1798372006
 C         -2.7659860026        0.7079234800        1.1931336280
 O         -3.3773403171        0.3071254803        2.2066212323
 O         -1.1235469557       -0.1883058267       -1.9034966021
 C         -2.6192523416       -1.5545776234        0.1508676003
 C         -1.3154988453       -2.3141158679        0.2005759183
 C         -1.0450985423       -3.4404692685       -0.5663985377
 C          0.1859948945       -4.0681721799       -0.4782765729
 C          1.1777764808       -3.5741174448        0.3497682955
 C          0.9135772450       -2.4513859521        1.1257381563
 C         -0.3347524722       -1.8539337911        1.0696923490
 H         -0.5301006481       -0.9869094276        1.6837584731
 N          1.8961970813       -1.8807011484        1.9619083532
 S          2.3533885024       -0.3034412741        1.6186757975
 O          3.4317658821       -0.0172818758        2.5403858092
 O          1.2091726393        0.5675439891        1.6875026662
 C          3.0057426906       -0.3905618915       -0.0399558508
 C          2.1425469674       -0.5693855113       -1.1027255447
 C          2.6740305120       -0.7220454825       -2.3750003486
 C          4.0464086712       -0.6898955445       -2.5642054093
 C          4.8995804795       -0.5062985375       -1.4861209016
 C          4.3768740393       -0.3629198370       -0.2114425560
 H          4.9997528423       -0.2224010206        0.6571891236
 H          5.9671311276       -0.4788733386       -1.6339335754
 H          4.4513248791       -0.8078697770       -3.5568749969
 H          1.9995182059       -0.8616118101       -3.2049136023
 H          1.0757644891       -0.5809303931       -0.9427461239
 H          2.7255728157       -2.4504943628        2.0619121002
 H          2.1470093667       -4.0472972167        0.3960755943
 H          0.3824801111       -4.9430886284       -1.0787387419
 H         -1.7963824139       -3.8236191526       -1.2372320869
 H         -3.1540026914       -1.7368242926        1.0950013442
 C         -3.5111699755       -1.9570495473       -1.0050369308
 C         -4.4489329126       -3.1175903041       -0.8672324473
 C         -4.9862664797       -1.7191327786       -0.8959840080
 H         -5.5216756108       -1.3873772550       -1.7727779887
 H         -5.3514935854       -1.2895790983        0.0259671676
 H         -4.6209292745       -3.7473418512       -1.7270478680
 H         -4.4597159606       -3.6432067994        0.0757186236
 H         -3.0471732180       -1.7824783582       -1.9686832320
