  62
        -98.94350889
 C         -1.8522753694       -0.8836441997       -0.5187110182
 C         -3.1854354612       -1.2892059526       -0.2756494169
 C         -4.2029575114       -0.2384875307       -0.3932396330
 C         -3.8363310445        1.0112845378       -0.7316258538
 C         -4.7603381567        2.1849692535       -0.9133991186
 C         -5.1167473533        2.9074636472        0.3930269735
 C         -6.0779209410        2.1528032863        1.3123486938
 H         -6.4107046417        2.8580672171        2.0765932311
 H         -6.9584232821        1.8487602566        0.7453945278
 C         -5.4619171031        0.9294311119        2.0055696267
 H         -4.3723563850        0.9918678093        1.9534224071
 H         -5.7316082983        0.9363326925        3.0641603681
 C         -5.9088626923       -0.4159303018        1.4333071537
 H         -5.3854741435       -1.2092968087        1.9733771576
 H         -6.9803541775       -0.5471090445        1.6000015803
 C         -5.6217222577       -0.5923054126       -0.0635985862
 H         -6.3123126738        0.0109194128       -0.6526066164
 H         -5.7700687392       -1.6444491405       -0.3191675970
 H         -4.1935779276        3.1285119410        0.9338805014
 H         -5.5794516656        3.8595867010        0.1232008586
 H         -5.6741692332        1.8591404672       -1.4110174980
 H         -4.2416669173        2.8905131806       -1.5659472948
 O         -2.5441728904        1.3567349465       -0.9740539716
 C         -1.5182594055        0.4277153918       -0.8580457015
 O         -0.3834762264        0.8846672225       -1.0822835165
 O         -3.5083668131       -2.4699548760        0.0259537750
 C         -0.7378945716       -1.9068340725       -0.4075530703
 C          0.2958515672       -1.4559325440        0.5943152314
 C         -0.1249281574       -0.9450550414        1.8193812948
 C          0.7893715864       -0.5090997983        2.7588460415
 C          2.1482263851       -0.5853016920        2.5062075479
 C          2.5802291807       -1.1051404298        1.2942185049
 C          1.6577832715       -1.5375766082        0.3484007907
 H          2.0134441074       -1.9374139933       -0.5885158763
 N          3.9633103346       -1.2084851053        1.0391542039
 S          4.8761426061        0.1942420682        0.9854453341
 O          6.2122489517       -0.2331866902        0.6386253109
 O          4.7323000842        0.8978229903        2.2336740871
 C          4.1810795495        1.1460118525       -0.3525208165
 C          4.8185197364        1.1428034746       -1.5775778835
 C          4.2429770232        1.8316712758       -2.6326014429
 C          3.0397899663        2.4960018896       -2.4476105618
 C          2.4100085633        2.4860689509       -1.2126823338
 C          2.9848960364        1.8053504441       -0.1517697730
 H          2.5171422097        1.7763344886        0.8189601909
 H          1.4616304197        2.9788299432       -1.0757137043
 H          2.5847093889        3.0233552874       -3.2713780951
 H          4.7286992141        1.8437537622       -3.5953079475
 H          5.7510577900        0.6105020166       -1.6755329095
 H          4.1767008883       -1.7687910827        0.2253871179
 H          2.8747400174       -0.2354393637        3.2211837296
 H          0.4431486140       -0.1086781464        3.7000868317
 H         -1.1856211365       -0.8867356769        2.0235716953
 H         -1.2155830544       -2.8196404398       -0.0206156066
 C         -0.1659067826       -2.2017550849       -1.7790397782
 C          0.4034231370       -3.5529560889       -2.0911858370
 C         -0.9084400652       -3.1370060055       -2.6838948673
 H         -0.9514580247       -2.9097660934       -3.7384722379
 H         -1.8118830650       -3.5857577682       -2.2975427116
 H          1.2612050967       -3.6143753632       -2.7442999979
 H          0.3914685473       -4.2950952973       -1.3071676741
 H          0.2972485096       -1.3310767234       -2.2308213064
