  62
        -98.93388023
 C         -2.2507979356       -1.3994533847        0.2578641112
 C         -2.1064061502       -0.2914225861       -0.6102190643
 C         -3.2949530264        0.5632596942       -0.7643147788
 C         -4.4264210628        0.2392525117       -0.1118908352
 C         -5.6923217831        1.0482590003       -0.1078791916
 C         -5.5417562205        2.2565818237        0.8384972271
 C         -5.5784713551        3.6146533868        0.1375008015
 H         -6.6105449311        3.8459484435       -0.1340322846
 H         -5.2521548531        4.3648016606        0.8608944551
 C         -4.7234091461        3.7367868458       -1.1276532941
 H         -4.6382153795        4.8021594338       -1.3519986154
 H         -5.2473627926        3.2832305339       -1.9703385478
 C         -3.3135387929        3.1370623039       -1.0466533732
 H         -2.6307610362        3.8015392392       -1.5800195983
 H         -2.9716176243        3.0940991092       -0.0124214525
 C         -3.1719129270        1.7436139482       -1.6877390287
 H         -3.8894210195        1.6435568037       -2.5070696378
 H         -2.1694368156        1.6567175156       -2.1179696251
 H         -6.3374847295        2.2354674808        1.5845557519
 H         -4.5998411521        2.1511142648        1.3807104113
 H         -6.4944215685        0.3945121623        0.2350819472
 H         -5.9201970810        1.3790793368       -1.1186695104
 O         -4.5282034726       -0.8449866906        0.7008057628
 C         -3.4491726593       -1.6872598045        0.9096188063
 O         -3.6760424423       -2.6370681778        1.6858063049
 O         -1.0389159901       -0.0270795071       -1.2237785584
 C         -1.0838504462       -2.3445449759        0.4746795208
 C          0.1470700529       -1.5872539224        0.9087278511
 C          0.0311096817       -0.5863215482        1.8696921785
 C          1.1373591365        0.1237292900        2.2940117350
 C          2.3904471553       -0.1519850994        1.7736911831
 C          2.5199505059       -1.1529229975        0.8220451607
 C          1.4069771807       -1.8674652167        0.4009441987
 H          1.5324948883       -2.6392800669       -0.3431746232
 N          3.8088757076       -1.4277389526        0.2931584230
 S          4.2635255695       -0.4114329275       -0.9760692813
 O          3.2421606552       -0.3595082574       -1.9993416521
 O          5.5550243353       -0.9008746146       -1.4077590185
 C          4.4397364060        1.1756923781       -0.1987187087
 C          3.3939070196        2.0752112544       -0.2645953935
 C          3.5288014996        3.3006127600        0.3690859769
 C          4.6982606002        3.6008809887        1.0515429604
 C          5.7395188283        2.6861016966        1.1053529826
 C          5.6114938590        1.4583501668        0.4757346800
 H          6.3936706250        0.7174375803        0.4854927904
 H          6.6470717886        2.9251971671        1.6358689611
 H          4.7978300343        4.5553420559        1.5440694572
 H          2.7196210570        4.0121065173        0.3295602550
 H          2.5007360982        1.7980603946       -0.8027692065
 H          3.8900507300       -2.3790234103       -0.0432326772
 H          3.2608742479        0.3881845744        2.1078874645
 H          1.0253937389        0.8975586190        3.0379912198
 H         -0.9475912098       -0.3683272186        2.2757689778
 H         -1.3816567316       -3.0144033409        1.2952987705
 C         -0.8666813989       -3.1762482623       -0.7740451745
 C         -0.3552922336       -4.5815004252       -0.6737754661
 C         -1.7857804668       -4.3285184330       -1.0414031339
 H         -2.0999369016       -4.5134115421       -2.0577045691
 H         -2.5490622218       -4.5308013010       -0.3040942885
 H          0.3124889309       -4.9436210461       -1.4417143561
 H         -0.1483532272       -4.9707235746        0.3118235799
 H         -0.5552887187       -2.5764095697       -1.6230187866
