  62
        -98.93582713
 C         -2.3565351147       -1.1094005063        0.1339951864
 C         -3.6068830881       -1.0037880322        0.7953877233
 C         -4.5984121709       -0.0854300488        0.2099271718
 C         -4.2648222400        0.6167793995       -0.8861731674
 C         -5.0946658535        1.6435112853       -1.6061982595
 C         -4.7811271717        3.0572386158       -1.0874860659
 C         -5.5986611809        3.4941853844        0.1275724761
 H         -5.1901511451        4.4489202483        0.4666812830
 H         -6.6315085705        3.6705137417       -0.1801030125
 C         -5.5989733503        2.5139137367        1.3034634465
 H         -4.5894805818        2.1296248475        1.4614249705
 H         -5.8771721057        3.0689446849        2.2014585725
 C         -6.5801245787        1.3470890605        1.1164850266
 H         -7.2427311703        1.5692561544        0.2802551625
 H         -7.2151805587        1.2636643915        2.0008494472
 C         -5.9293464127       -0.0281657690        0.9091576603
 H         -5.7498137478       -0.4956296669        1.8824455850
 H         -6.6313031631       -0.6780918359        0.3758383673
 H         -3.7147758098        3.0976453276       -0.8493150837
 H         -4.9619202251        3.7733086273       -1.8918498147
 H         -4.8109248210        1.5893464996       -2.6594025499
 H         -6.1528776639        1.4166725164       -1.5161640453
 O         -3.0436171664        0.5101481031       -1.4757181173
 C         -2.0598426027       -0.3417536517       -0.9936370921
 O         -1.0080828854       -0.3121593734       -1.6601408761
 H          0.9047651518       -2.0752358283       -0.8312012183
 C          1.0177369480       -1.4352483142        0.0299485657
 C         -0.0228442263       -1.3175649995        0.9367693687
 C          0.1296568575       -0.4577520602        2.0203980890
 C          1.2984600029        0.2595484754        2.1921769167
 C          2.3340547282        0.1437065116        1.2811965669
 C          2.1821187867       -0.6942266082        0.1851449336
 N          3.2203919791       -0.8114735306       -0.7530634228
 S          4.0287926821        0.5706401489       -1.2531419195
 O          3.1984364446        1.7502505269       -1.1832671325
 O          4.5694620927        0.2380761492       -2.5536098742
 C          5.3756470765        0.7039023937       -0.0928126027
 C          5.6022205334        1.8966432367        0.5655239973
 C          6.6633377472        1.9823012881        1.4536170525
 C          7.4761022873        0.8794918373        1.6657984641
 C          7.2373179803       -0.3106109611        0.9947443966
 C          6.1791298638       -0.4020878369        0.1048930637
 H          5.9620844057       -1.3066083245       -0.4380847825
 H          7.8714876574       -1.1662047911        1.1623235222
 H          8.3003069156        0.9481325780        2.3580942289
 H          6.8502720508        2.9072248312        1.9752851876
 H          4.9407253409        2.7265901364        0.3729368580
 H          2.9797321923       -1.3890029090       -1.5459047408
 H          3.2419639856        0.7120645127        1.3998356092
 H          1.4050350083        0.9191770698        3.0400155804
 H         -0.6860287980       -0.3514821090        2.7223799933
 C         -1.3283073399       -2.0452648811        0.7473036931
 H         -1.7369529027       -2.2773202110        1.7439425250
 C         -1.1667585038       -3.3767254982        0.0290062407
 C         -2.3623557003       -4.0884758709       -0.5279968422
 C         -1.3182412560       -3.5412570073       -1.4523078480
 H         -0.6647190364       -4.2396801031       -1.9552484076
 H         -1.5536879758       -2.6680129998       -2.0401860495
 H         -2.4326576523       -5.1583699473       -0.4030679957
 H         -3.3125079334       -3.5771696900       -0.4740237855
 H         -0.4155035051       -3.9976868568        0.5080075443
 O         -3.8834002041       -1.6497742066        1.8413927341
