  62
        -98.94530708
 C          2.1409548148        0.8901212084        0.0726628611
 C          2.8487852314        0.2135710861        1.0938730477
 C          3.5784065608       -0.9925640545        0.6809601153
 C          3.4967468254       -1.4040798433       -0.5977588255
 C          4.2269550178       -2.5859977740       -1.1653995454
 C          5.5920215289       -2.1743179329       -1.7346873308
 C          6.4272503701       -1.3206841236       -0.7803760344
 H          7.3792757567       -1.1174524904       -1.2752605274
 H          5.9291622169       -0.3595497019       -0.6340284517
 C          6.6893336612       -1.9684672168        0.5864045104
 H          7.7417667819       -1.8309928143        0.8430224333
 H          6.5077006753       -3.0422716222        0.5285175986
 C          5.8703341440       -1.3774903197        1.7353520764
 H          5.9763063986       -0.2897929269        1.7388130039
 H          6.2852751975       -1.7500672894        2.6756029329
 C          4.3740705430       -1.7154838810        1.7315039575
 H          4.2405036209       -2.7956082029        1.6411635485
 H          3.9590858539       -1.3974730708        2.6926263439
 H          5.4259032598       -1.6022045127       -2.6503826367
 H          6.1437334676       -3.0794695358       -1.9948467735
 H          3.6205180244       -3.0108936749       -1.9672704331
 H          4.3569638360       -3.3351602439       -0.3866307982
 O          2.7661789300       -0.7554910173       -1.5405952991
 C          2.0769533829        0.4099560683       -1.2357722633
 O          1.4601706740        0.9079581976       -2.1957266745
 O          2.8635701172        0.5964522570        2.2956130372
 C          1.3790262885        2.1567880524        0.4203170473
 C         -0.0930384488        1.9550743808        0.1566096273
 C         -0.8706651750        2.8329599196       -0.5859076594
 C         -2.2112825943        2.5659122983       -0.8060003828
 C         -2.8058940100        1.4312688371       -0.2863569985
 C         -2.0387283053        0.5494501011        0.4641849813
 C         -0.6975086407        0.8195170344        0.6830276748
 H         -0.0991824711        0.1276506497        1.2641517434
 N         -2.6365408603       -0.6011565079        1.0113218598
 S         -3.4952394569       -1.6049831570       -0.0278268747
 O         -3.4590924265       -2.9101516184        0.5967699186
 O         -2.9961650331       -1.5258797361       -1.3812516823
 C         -5.1574296396       -0.9713259084        0.0536927283
 C         -5.7580105961       -0.8772244363        1.2940171923
 C         -7.0532277894       -0.3914967217        1.3746132543
 C         -7.7232444507       -0.0135763661        0.2203726672
 C         -7.1076590308       -0.1176898524       -1.0175515995
 C         -5.8114360685       -0.6017549968       -1.1051868774
 H         -5.2895627026       -0.6948121640       -2.0444489813
 H         -7.6298373387        0.1760293403       -1.9139447177
 H         -8.7312246839        0.3644913959        0.2859404331
 H         -7.5351723517       -0.3089266278        2.3354144689
 H         -5.2036345034       -1.1849696713        2.1647823159
 H         -2.0054198475       -1.1477374059        1.5800240335
 H         -3.8475865809        1.2175833781       -0.4615169974
 H         -2.8015941653        3.2523733570       -1.3934947255
 H         -0.4254859508        3.7204543386       -1.0041338502
 H          1.5161437601        2.2914934346        1.5037300390
 C          1.9720474993        3.3498938073       -0.2981752165
 C          1.8504995789        4.7218244080        0.2926988077
 C          3.1756245152        4.0226148700        0.2884928113
 H          3.9459999772        4.3759116678       -0.3804333403
 H          3.5542439393        3.6345308013        1.2229622631
 H          1.7129664420        5.5598742010       -0.3735775173
 H          1.3306504036        4.8154200729        1.2339848677
 H          1.9320794897        3.2479605902       -1.3768675134
