  62
        -98.93742294
 C         -1.9142106095       -0.8463986991       -0.4892553408
 C         -2.9686466994       -1.2297728600        0.3756916289
 C         -4.2749379295       -0.6029565298        0.1284488197
 C         -4.3948276096        0.2839023512       -0.8762715294
 C         -5.6335972697        1.0685485215       -1.2030484984
 C         -5.7970369296        2.2350155705       -0.2076584272
 C         -7.0257289794        2.1256369996        0.6956113728
 H         -6.9191867294        2.8739118588        1.4839416635
 H         -7.9155350595        2.3819421702        0.1166674932
 C         -7.2630371193        0.7551078789        1.3371562914
 H         -7.7285593394        0.0861945797        0.6117576908
 H         -7.9915249992        0.9009080681        2.1375895317
 C         -6.0236786792        0.0627726484        1.9186914606
 H         -6.3140047291       -0.4255399926        2.8511762501
 H         -5.2560880492        0.7951976981        2.1698054012
 C         -5.4145054393       -1.0249488907        1.0142903094
 H         -4.9976744692       -1.8125273213        1.6489194286
 H         -6.2024662494       -1.4766220001        0.4053345591
 H         -5.8594780796        3.1758342011       -0.7567408563
 H         -4.8954587195        2.2904346499        0.4062454927
 H         -6.5021434196        0.4143755815       -1.1723323690
 H         -5.5185060898        1.4492573826       -2.2181204981
 O         -3.3580804897        0.6318338521       -1.6812680092
 C         -2.0937507297        0.0854806519       -1.5108868199
 O         -1.2468199198        0.5012699728       -2.3241895496
 O         -2.8226175593       -2.0613480710        1.3109631980
 C         -0.5407145795       -1.4547140493       -0.2593097416
 C          0.3898544906       -0.3702605298        0.2219420994
 C          0.2838488807        0.0759426289        1.5366081698
 C          1.1014461607        1.0843601184        2.0105840607
 C          2.0438308906        1.6698286193        1.1827873512
 C          2.1530364305        1.2347216006       -0.1305161592
 C          1.3366876804        0.2157625611       -0.6030220902
 H          1.4260663703       -0.1020694979       -1.6295816105
 N          3.1300310804        1.8125694415       -0.9665079988
 S          4.7067249104        1.7017107609       -0.4070505491
 O          4.9411483005        2.7308148699        0.5744818119
 O          5.5436892203        1.7469567521       -1.5851111491
 C          4.7795776506        0.0948474601        0.3649891593
 C          4.8092192307       -0.0070650612        1.7406762092
 C          4.7748625308       -1.2656744918        2.3194437379
 C          4.7060327208       -2.3935187710        1.5167564468
 C          4.6809081006       -2.2746315696        0.1354832969
 C          4.7139694305       -1.0191237590       -0.4483730218
 H          4.7002842503       -0.8888217879       -1.5186180317
 H          4.6287026805       -3.1540046290       -0.4862819740
 H          4.6720789608       -3.3721308215        1.9691974158
 H          4.7953235510       -1.3618209529        3.3930252178
 H          4.8608567308        0.8950169582        2.3277172201
 H          3.0697555103        1.4972188724       -1.9240522091
 H          2.6947699307        2.4554794889        1.5312164219
 H          1.0066884109        1.4184053474        3.0325756811
 H         -0.4560728192       -0.3783971318        2.1807877895
 H         -0.6777160494       -2.1718873402        0.5613277577
 C         -0.0335742596       -2.1975075781       -1.4774621524
 C          1.1539820904       -3.1021502882       -1.3397409535
 C         -0.2101699396       -3.6828152880       -1.5572681739
 H         -0.4379873997       -4.1225572170       -2.5167901243
 H         -0.6970090095       -4.1729661789       -0.7271538944
 H          1.8647537603       -3.1461397574       -2.1508206736
 H          1.5962615305       -3.1926704092       -0.3592667536
 H         -0.1419701597       -1.6355306071       -2.3975345619
