  62
        -98.93441757
 C         -2.5707914467       -0.8945184586       -0.0651015721
 C         -2.1425672622        0.1143661948       -0.9611436379
 C         -2.6397140342        1.4822058070       -0.7008083036
 C         -3.4874985310        1.7037801721        0.3196001162
 C         -4.1890967578        2.9621196907        0.7891778502
 C         -3.7691972408        4.3321217717        0.2643501402
 C         -2.3857306812        4.7946389287        0.7235012675
 H         -2.1289767919        5.7053897495        0.1785576852
 H         -2.4412533666        5.0459326021        1.7856456694
 C         -1.2574038330        3.7796311245        0.5542339804
 H         -0.3430901666        4.2193513493        0.9616206958
 H         -1.4705340699        2.8870246945        1.1462809775
 C         -0.9587771911        3.3555602000       -0.8822080031
 H         -0.7303709749        4.2357152994       -1.4874972684
 H         -0.0665276198        2.7225071799       -0.8572040774
 C         -2.0727698950        2.5585867200       -1.5805717811
 H         -1.6307109922        2.0505491959       -2.4430640167
 H         -2.8567524686        3.2139275498       -1.9527143592
 H         -3.8427349887        4.3562341107       -0.8189386263
 H         -4.5001371504        5.0497045319        0.6468780701
 H         -5.2490039773        2.8118769560        0.5559613785
 H         -4.1110673328        2.9569917373        1.8809972733
 O         -3.9139524795        0.6874679746        1.1270132986
 C         -3.4513555137       -0.6049600480        0.9791777783
 O         -3.9044453398       -1.4060527541        1.8227590031
 O         -1.3885104564       -0.0868588779       -1.9503583179
 C         -2.1090228329       -2.3398937995       -0.1285885198
 C         -0.8039397942       -2.5463428972        0.6064508307
 C         -0.6322321212       -3.6547139801        1.4282634831
 C          0.5685581867       -3.8687787119        2.0800464906
 C          1.6185309278       -2.9830698981        1.9247884616
 C          1.4535641068       -1.8628120103        1.1161304078
 C          0.2489291970       -1.6547607441        0.4595551141
 H          0.1437808790       -0.7908994895       -0.1777067401
 N          2.4892236089       -0.9244189946        0.9942738494
 S          2.6238260714        0.0202792648       -0.3977888452
 O          1.7063905649        1.1252810771       -0.3005114594
 O          2.5394204278       -0.8126319882       -1.5757261309
 C          4.2941862827        0.6133072223       -0.1947969946
 C          4.5160185057        1.7295950656        0.5889748820
 C          5.8164223515        2.1723405213        0.7725427644
 C          6.8680574332        1.4948925074        0.1735291615
 C          6.6302901098        0.3773736284       -0.6125077929
 C          5.3320479859       -0.0707658030       -0.7991252655
 H          5.0976782613       -0.9278525581       -1.4098993663
 H          7.4492204321       -0.1451146951       -1.0800370931
 H          7.8789741522        1.8423005817        0.3170633485
 H          6.0043496152        3.0430392467        1.3798027219
 H          3.6661420112        2.2278875418        1.0258078912
 H          3.3854768950       -1.2819481936        1.2947041621
 H          2.5565817604       -3.1480204722        2.4324818542
 H          0.6895273643       -4.7345431374        2.7131399440
 H         -1.4521305677       -4.3447506107        1.5610485286
 H         -2.8804112137       -2.9202793109        0.3978104760
 C         -1.9837980430       -2.8857069141       -1.5388062075
 C         -2.1835267572       -4.3506796739       -1.7794281039
 C         -3.2096169439       -3.3661309582       -2.2527298907
 H         -3.2970205362       -3.1712568253       -3.3108657254
 H         -4.1479864751       -3.3116570925       -1.7196489673
 H         -1.5611968175       -4.8381666718       -2.5140506508
 H         -2.4337129688       -4.9709409729       -0.9322859944
 H         -1.2314188014       -2.3752886409       -2.1266638408
