  62
        -98.93761192
 C         -1.8571266630       -0.1780555593       -0.0792562562
 C         -2.8762825424       -1.0821218688        0.3031356831
 C         -4.2040641903       -0.4984392879        0.5433657185
 C         -4.3683009160        0.8302538787        0.4085419463
 C         -5.6734218630        1.5631985252        0.5379104295
 C         -6.5148463104        1.3675811702       -0.7396111670
 C         -7.8099692113        0.5831624464       -0.5279055657
 H         -8.5422701639        1.2319031144       -0.0426724780
 H         -8.2009075259        0.3258771685       -1.5146578302
 C         -7.6884746425       -0.6939412892        0.3090758792
 H         -7.6633724089       -0.4369628975        1.3690819527
 H         -8.6047177951       -1.2664024833        0.1494957161
 C         -6.4855242607       -1.5920325329       -0.0068893454
 H         -6.1400158828       -1.4273831345       -1.0277245261
 H         -6.8133266560       -2.6318145347        0.0537840615
 C         -5.2994461851       -1.4392283037        0.9636994715
 H         -5.6706265702       -1.1504662106        1.9509040731
 H         -4.8075249294       -2.4107200827        1.0687925498
 H         -5.8964229829        0.8585768059       -1.4820169276
 H         -6.7700330812        2.3416247295       -1.1598603879
 H         -5.4402994451        2.6184121919        0.6814561516
 H         -6.2133100027        1.2031902396        1.4108807601
 O         -3.3595646026        1.6690164092        0.0551075635
 C         -2.0815253449        1.1927499752       -0.2006831416
 O         -1.2598753895        2.0731768253       -0.5176323557
 O         -2.6820606182       -2.3199174737        0.4422089155
 C         -0.4669639248       -0.7207797280       -0.3617502437
 C          0.5329871452       -0.0682748462        0.5593057694
 C          0.3212310299       -0.1521986357        1.9341910456
 C          1.1878505156        0.4533864402        2.8216364228
 C          2.2934991032        1.1461385732        2.3585047143
 C          2.5183326490        1.2313509704        0.9906880380
 C          1.6442528326        0.6196382998        0.1002324163
 H          1.8361259675        0.7194138469       -0.9543041863
 N          3.6232979577        1.9425393817        0.4953131660
 S          4.5793252459        1.2949349115       -0.7122848863
 O          5.7849275915        2.0933840963       -0.6859003489
 O          3.8640397683        1.2613161506       -1.9615593441
 C          4.9349790546       -0.3594270158       -0.1496905989
 C          4.1686602394       -1.4154048740       -0.5987197132
 C          4.4143386310       -2.6821249603       -0.0922249334
 C          5.4146366411       -2.8695617074        0.8488718732
 C          6.1790439259       -1.7983942352        1.2865581920
 C          5.9356362012       -0.5294103330        0.7876079301
 H          6.5130895396        0.3280438099        1.0931725826
 H          6.9596437230       -1.9484953607        2.0148623741
 H          5.6006618497       -3.8570196741        1.2408814384
 H          3.8221844603       -3.5164349452       -0.4331105948
 H          3.4029134560       -1.2317151887       -1.3338789672
 H          4.1934178909        2.3735567132        1.2082805581
 H          2.9681335858        1.6283931853        3.0495029042
 H          1.0049198146        0.3856734086        3.8834208008
 H         -0.5444988496       -0.6909402753        2.2946259474
 H         -0.5186819512       -1.7908811721       -0.1122574699
 C         -0.1341429822       -0.5806057836       -1.8315148645
 C          0.7993279041       -1.5517769207       -2.4878117629
 C         -0.6663758679       -1.5948388583       -2.7974614366
 H         -1.0022678781       -1.2568146041       -3.7663293046
 H         -1.2508484286       -2.4073553280       -2.3909840217
 H          1.4769736322       -1.1837888007       -3.2443224181
 H          1.2021012737       -2.3446954681       -1.8755801269
 H         -0.1116839958        0.4523541177       -2.1616012738
