  62
        -98.93827103
 C          0.7013168199        1.3417651105       -0.3062187893
 C          1.6850736996        1.3114339198        0.7168540209
 C          2.7086600996        0.2620350499        0.6216266706
 C          2.6622362299       -0.5982000995       -0.4111142399
 C          3.7031603300       -1.6342136693       -0.7284980802
 C          4.9389348002       -0.9583404390       -1.3572996794
 C          6.2079154499       -1.0541136195       -0.5102446291
 H          6.9442437301       -0.3757502992       -0.9465978785
 H          6.6093614399       -2.0669862194       -0.5848689896
 C          6.0433129795       -0.7224392604        0.9759717810
 H          7.0467366194       -0.5760144206        1.3814331714
 H          5.6190599493       -1.5804482307        1.4992371104
 C          5.1973508194        0.5163506994        1.2971588215
 H          5.1961172497        1.2101992899        0.4562311219
 H          5.6634883892        1.0364745789        2.1365445320
 C          3.7448630893        0.2121944392        1.7100704209
 H          3.4249114491        0.9674197388        2.4337052713
 H          3.7047044091       -0.7601418011        2.2077799303
 H          4.7002469203        0.0915305011       -1.5397457489
 H          5.1436940205       -1.4060731284       -2.3310508996
 H          3.2608880902       -2.3382299889       -1.4323807008
 H          3.9825074897       -2.1687352499        0.1763239295
 O          1.6862952002       -0.5624913789       -1.3520241702
 C          0.6703702202        0.3834959011       -1.3190687899
 O         -0.1587057895        0.2474084916       -2.2398342503
 O          1.7111927793        2.1424731593        1.6637354214
 C         -0.3185706601        2.4649459904       -0.2202061990
 C         -1.5448234403        2.0294536100        0.5445023604
 C         -1.9248255407        2.6964191793        1.7034478707
 C         -3.0409889409        2.2939151789        2.4142405201
 C         -3.7850764608        1.2081117291        1.9920005592
 C         -3.4098328505        0.5306873598        0.8356147089
 C         -2.3039040102        0.9511242603        0.1100533295
 H         -2.0310801100        0.4280743908       -0.7938647907
 N         -4.1404998103       -0.5845678399        0.4094401280
 S         -3.4722781701       -1.7859785694       -0.5283247125
 O         -3.4221919496       -1.3754058685       -1.9079208222
 O         -4.3115141102       -2.9376677595       -0.2587906134
 C         -1.8322277903       -2.1294621597        0.0892610578
 C         -0.9341583700       -2.6892406092       -0.7959614123
 C          0.3210479899       -3.0570335095       -0.3407245221
 C          0.6643239095       -2.8416680503        0.9843091081
 C         -0.2459103508       -2.2735226008        1.8606458482
 C         -1.5120529007       -1.9264193205        1.4166410880
 H         -2.2330837009       -1.4945582909        2.0912587081
 H          0.0243961589       -2.1004536514        2.8899998884
 H          1.6456883194       -3.1185371705        1.3354464683
 H          1.0260866001       -3.5019690991       -1.0241494721
 H         -1.2286284297       -2.8106469886       -1.8261870724
 H         -4.8238173105       -0.9393162203        1.0615287976
 H         -4.6490954710        0.8805914188        2.5494876488
 H         -3.3277145812        2.8216280683        3.3108293403
 H         -1.3284864708        3.5256224591        2.0533258113
 H          0.1732057997        3.2518577901        0.3686146316
 C         -0.7098417897        3.0508776212       -1.5619532288
 C         -1.2150819297        4.4604167213       -1.6176099881
 C          0.1384591805        4.1265982716       -2.1679513079
 H          0.2793970708        4.1281873122       -3.2383380578
 H          1.0077412003        4.4492328312       -1.6133234174
 H         -2.0089515894        4.6942724017       -2.3101827482
 H         -1.2618179399        5.0136115807       -0.6918296177
 H         -1.1543148695        2.3296080916       -2.2355374393
