  62
        -98.93654622
 C         -2.6481200022        0.1734665690        0.1910624331
 C         -2.1362344553        1.0086597551       -0.8311522720
 C         -1.6783927188        2.3476193973       -0.4105360169
 C         -1.6998372866        2.6847100798        0.8888697732
 C         -1.2889245600        3.9851207104        1.5332257327
 C          0.0086442252        4.6422044065        1.0427184922
 C          1.0995929694        3.6722261315        0.5641673998
 H          0.8555713871        2.6446926274        0.8427619345
 H          2.0399577173        3.9260411813        1.0579812020
 C          1.3309746555        3.7406701797       -0.9472612524
 H          2.3210047748        3.3340794375       -1.1695363720
 H          1.3254498750        4.7888596731       -1.2572935949
 C          0.3300102720        2.9590157921       -1.7972631364
 H          0.5050546886        1.8870611183       -1.6737514874
 H          0.5261877781        3.1915508013       -2.8475840883
 C         -1.1530043316        3.2354748405       -1.5026298797
 H         -1.7226404509        2.9788368607       -2.4004150059
 H         -1.3186570203        4.2863436703       -1.2737217813
 H          0.3924404814        5.2376778497        1.8728850344
 H         -0.2201017028        5.3379901232        0.2362107457
 H         -1.2031860224        3.7549926147        2.5978864284
 H         -2.1136359499        4.6954661748        1.4220038109
 O         -2.1703301975        1.8377427530        1.8476449621
 C         -2.6405110957        0.5800626291        1.5276098717
 O         -3.0389297224       -0.0805737550        2.5099689485
 O         -2.0672530749        0.6909199366       -2.0481640718
 C         -3.1122099873       -1.2615985810       -0.0123462793
 C         -1.9680979522       -2.1919901758        0.3206181000
 C         -2.1514119995       -3.3045895156        1.1322949621
 C         -1.0766566779       -4.1020244378        1.4835909036
 C          0.2014485002       -3.7871221270        1.0593816286
 C          0.3923777952       -2.6814333494        0.2380150875
 C         -0.6944393576       -1.9144864969       -0.1519762362
 H         -0.5307433285       -1.0648175273       -0.7978005423
 N          1.6735781747       -2.3145964359       -0.2044107736
 S          1.9861727420       -0.6552413852       -0.3380480413
 O          1.3527842369        0.0608500919        0.7452523985
 O          1.6589429359       -0.2419168321       -1.6783802582
 C          3.7583897407       -0.6423838236       -0.1391044606
 C          4.3064550581       -0.2825420834        1.0769772291
 C          5.6846356877       -0.3100707093        1.2253765190
 C          6.4858491381       -0.6983251002        0.1622378952
 C          5.9209948047       -1.0554893715       -1.0534022440
 C          4.5443732798       -1.0278827212       -1.2091049649
 H          4.0596549521       -1.2857113401       -2.1362827112
 H          6.5469935286       -1.3535055789       -1.8788520585
 H          7.5575759632       -0.7197227358        0.2808611725
 H          6.1262234850       -0.0289949111        2.1678358519
 H          3.6428600446        0.0176791627        1.8721695846
 H          2.4144316230       -2.8033097975        0.2797299748
 H          1.0461029846       -4.3861002258        1.3642427988
 H         -1.2311408521       -4.9613173009        2.1182959951
 H         -3.1380203257       -3.5261319842        1.5108441904
 H         -3.9032011151       -1.4348110124        0.7322774661
 C         -3.6709163768       -1.5758811234       -1.3840821464
 C         -4.6411344892       -2.7084533966       -1.5316423838
 C         -5.1122554304       -1.2932680870       -1.6765946316
 H         -5.3724510571       -0.9279705020       -2.6582777620
 H         -5.7082004162       -0.8694683555       -0.8812577999
 H         -4.5794783388       -3.3231633939       -2.4162677206
 H         -4.9256492879       -3.2464824764       -0.6402379118
 H         -2.9613008343       -1.4126666917       -2.1841937303
