  62
        -98.94024249
 C          2.4879312439        1.1361995550        0.0247873008
 C          2.6373469639        0.0043076152       -0.8120895301
 C          4.0148870411       -0.4753084712       -0.9963685947
 C          5.0273285283        0.1791579278       -0.3986966333
 C          6.4681728367       -0.2373181386       -0.4529771701
 C          6.8202210010       -1.1676800314        0.7165246399
 C          5.8354040871       -2.3214356051        0.9066489280
 H          6.1998226105       -2.9256654563        1.7402588780
 H          4.8646231840       -1.9173677908        1.2030662106
 C          5.6548545578       -3.2125309761       -0.3301611629
 H          5.6797696795       -4.2578124422       -0.0152093731
 H          6.4861993605       -3.0619088667       -1.0197234198
 C          4.3351818830       -3.0034444265       -1.0753404497
 H          4.2146448003       -3.8216667528       -1.7903096463
 H          3.5014502549       -3.0594636277       -0.3705982066
 C          4.2131502532       -1.6901261678       -1.8584231434
 H          5.0815414664       -1.5657020063       -2.5084431599
 H          3.3196930187       -1.7593769136       -2.4859198652
 H          7.8226910070       -1.5662359146        0.5506839053
 H          6.8366477600       -0.5769864405        1.6353554755
 H          7.0877848241        0.6588480561       -0.3921681561
 H          6.6608376420       -0.7373771827       -1.4000078611
 O          4.8449834692        1.2791697387        0.3766041898
 C          3.5751223675        1.7756176655        0.6194875469
 O          3.5455794689        2.7714633462        1.3710304183
 O          1.6735772788       -0.5786606481       -1.3741956375
 C          1.1032377258        1.6945171865        0.2974563301
 C          0.2176867801        0.6213120466        0.8829365709
 C          0.6844864717       -0.1130923906        1.9708593961
 C         -0.0924595750       -1.1013173750        2.5423059324
 C         -1.3582716014       -1.3697613513        2.0513267205
 C         -1.8344448284       -0.6423088494        0.9676565617
 C         -1.0486034574        0.3478235159        0.3927216479
 H         -1.4451332359        0.8959861053       -0.4451372235
 N         -3.1030037158       -0.9120737365        0.4301475795
 S         -4.0098320072        0.3611501106       -0.2044809720
 O         -3.5774310271        0.6248502521       -1.5535190558
 O         -3.9909025265        1.4852358230        0.7046752702
 C         -5.6280991409       -0.3884355927       -0.2292880025
 C         -5.9368965642       -1.2599404231       -1.2568791486
 C         -7.1808353098       -1.8704630263       -1.2661505200
 C         -8.0900385779       -1.6018810731       -0.2534911473
 C         -7.7668044519       -0.7235674099        0.7697577038
 C         -6.5237519507       -0.1103594133        0.7858151156
 H         -6.2314990177        0.5850407558        1.5561539070
 H         -8.4769116843       -0.5144009895        1.5535043240
 H         -9.0577562438       -2.0779979220       -0.2638148595
 H         -7.4367955466       -2.5515038544       -2.0617216288
 H         -5.2018915092       -1.4309400107       -2.0261891827
 H         -3.6626386002       -1.5103548610        1.0222024894
 H         -1.9670019382       -2.1414040494        2.4976537136
 H          0.2864465798       -1.6639847657        3.3824817479
 H          1.6712201447        0.1029777267        2.3591858632
 H          1.2331770576        2.4792706400        1.0579864255
 C          0.5375438885        2.3261109105       -0.9570246023
 C         -0.4731292325        3.4273626268       -0.8559173228
 C          0.9237586116        3.7306167943       -1.3060033754
 H          1.0897684637        3.9774210874       -2.3438331263
 H          1.5815980715        4.2471927619       -0.6220379568
 H         -1.2722303700        3.4597978376       -1.5818587400
 H         -0.7718132332        3.7424970680        0.1328903451
 H          0.4366213929        1.6174970375       -1.7718857919
