  62
        -98.93887732
 C          2.0019125020        1.3479953135       -0.0095015320
 C          2.6215206060        0.7580117288        1.1151166350
 C          3.8056012112       -0.0773323937        0.8498070880
 C          4.2160431711       -0.2412966666       -0.4200359154
 C          5.3548599301       -1.0930922845       -0.9086588741
 C          4.8537226512       -2.4905067797       -1.3114306578
 C          4.7978487013       -3.5086370697       -0.1728897542
 H          4.3049552485       -4.4031647661       -0.5609544358
 H          5.8151137343       -3.7908322301        0.1064050564
 C          4.0570052516       -3.0457540071        1.0844923757
 H          3.1401056895       -2.5259092320        0.7996285703
 H          3.7621245303       -3.9349458566        1.6454485823
 C          4.9101084057       -2.1460455435        1.9913652217
 H          4.8807475084       -2.5317743121        3.0125383759
 H          5.9498598252       -2.2024087071        1.6698674840
 C          4.4698592162       -0.6757576881        2.0598934212
 H          5.3337153496       -0.0573654687        2.3252146171
 H          3.7389800894       -0.5525122208        2.8654093305
 H          3.8599587037       -2.3759003571       -1.7526958191
 H          5.5102732341       -2.8883869295       -2.0878225896
 H          5.7545970651       -0.5987235961       -1.7964321787
 H          6.1386646407       -1.1568379497       -0.1597515386
 O          3.5792486925        0.3321700048       -1.4777953392
 C          2.4604428346        1.1308405848       -1.3087786801
 O          1.9799606765        1.5756878624       -2.3673248220
 O          2.1951677256        0.9106597512        2.2928871419
 C          0.7761675393        2.2190758513        0.1971998397
 C         -0.4147416201        1.6097995582       -0.5015078353
 C         -1.2730597780        2.3274583791       -1.3232755862
 C         -2.3414816393        1.6989597648       -1.9408718668
 C         -2.5838735195        0.3523479913       -1.7461378313
 C         -1.7442813931       -0.3704311943       -0.9068676137
 C         -0.6771831338        0.2614291900       -0.2880142273
 H         -0.0225369707       -0.3046284946        0.3633002142
 N         -1.9897950929       -1.7354431183       -0.6858547818
 S         -3.5682366242       -2.2272847166       -0.4323452857
 O         -3.4646200218       -3.4324841378        0.3601841232
 O         -4.2441809721       -2.3643897157       -1.6983943050
 C         -4.3234090656       -0.9180250186        0.5159533226
 C         -3.7651979192       -0.5937738047        1.7367168764
 C         -4.3204269330        0.4388193971        2.4744374230
 C         -5.4195494218        1.1258842195        1.9817369792
 C         -5.9719307919        0.7845171303        0.7572463113
 C         -5.4189949503       -0.2460491606        0.0138090288
 H         -5.8142195554       -0.5421813850       -0.9442013288
 H         -6.8277822223        1.3189382526        0.3777685174
 H         -5.8469913202        1.9313943815        2.5576277796
 H         -3.8913131547        0.7049256344        3.4271744035
 H         -2.9132765460       -1.1493892414        2.0953850500
 H         -1.3566009641       -2.1691695561       -0.0310562622
 H         -3.3981217415       -0.1543699251       -2.2380499019
 H         -2.9923171533        2.2661169699       -2.5884216836
 H         -1.0998871079        3.3773023733       -1.4913779837
 H          0.5831423507        2.1968285181        1.2801612019
 C          1.0625552393        3.6469185652       -0.2159638186
 C          0.3355108140        4.7821097432        0.4389355277
 C          1.7833939957        4.5450587563        0.7427861171
 H          2.5153776373        5.2354564430        0.3512967503
 H          2.0455629756        4.1332115973        1.7065421972
 H          0.0737009508        5.6408675431       -0.1604502779
 H         -0.3878263293        4.5384240698        1.2020504585
 H          1.3137517906        3.7338471910       -1.2669906311
