  62
        -98.94437178
 C         -2.3246106898        1.1192932974       -0.2415909622
 C         -2.3784057245       -0.1196033441        0.4422314677
 C         -3.3446898895       -1.0952935455       -0.0804033512
 C         -4.0818530867       -0.8000068472       -1.1657005936
 C         -5.0915530654       -1.6990055308       -1.8259467860
 C         -6.4797194160       -1.6644416559       -1.1717466822
 C         -6.5786188655       -2.3646341923        0.1841613730
 H         -7.6405997522       -2.4556431027        0.4205818797
 H         -6.1760699545       -3.3746198194        0.1004969389
 C         -5.8798728943       -1.6235210605        1.3325778367
 H         -5.6961972327       -0.5873970849        1.0393628128
 H         -6.5384257905       -1.5979988057        2.2036353740
 C         -4.5600496679       -2.2507683438        1.7817574701
 H         -4.7481345392       -3.2416178959        2.2012720072
 H         -4.1343203675       -1.6263399269        2.5713396180
 C         -3.5135750360       -2.3835496594        0.6675308818
 H         -2.5519442096       -2.6316587247        1.1243560554
 H         -3.7905621506       -3.1863981778       -0.0155078831
 H         -6.7903280817       -0.6223842820       -1.0672291742
 H         -7.1751034691       -2.1513783101       -1.8591965755
 H         -5.1879924667       -1.3521874083       -2.8570306566
 H         -4.7179314954       -2.7233658149       -1.8379580373
 O         -3.9736450679        0.3873383896       -1.8182771475
 C         -3.1097853307        1.3712799738       -1.3707554559
 O         -3.1297308241        2.4153857890       -2.0524818407
 H          0.4293510622        0.7815001374        1.6244123191
 C          0.8169040922        1.0847536664        0.6647034257
 C          0.0269851531        1.8422443528       -0.1863189068
 C          0.5323598973        2.1832385767       -1.4373605460
 C          1.7984907801        1.7803484282       -1.8195812716
 C          2.5830090991        1.0216009043       -0.9681522322
 C          2.0795590662        0.6596596119        0.2735966129
 N          2.8595298595       -0.1250708911        1.1411999875
 S          3.5959491971       -1.4974086695        0.5141397912
 O          2.8599435101       -2.0397705033       -0.6049200515
 O          3.7873467318       -2.3774639577        1.6464571580
 C          5.1867569312       -0.9054062018       -0.0274596125
 C          5.9709309250       -0.2227899708        0.8819333726
 C          7.2140229214        0.2388569626        0.4800088548
 C          7.6514207674        0.0088157489       -0.8159900372
 C          6.8542707578       -0.6816159275       -1.7159246747
 C          5.6091346822       -1.1454221598       -1.3202485476
 H          4.9525940535       -1.6817097566       -1.9871081672
 H          7.1957051527       -0.8601300101       -2.7229432688
 H          8.6191351255        0.3697772191       -1.1266909164
 H          7.8367893096        0.7760495352        1.1770511531
 H          5.5952169245       -0.0676422799        1.8794194986
 H          2.3880179323       -0.3437687245        2.0077095455
 H          3.5665788174        0.6954891387       -1.2642775343
 H          2.1789474081        2.0564641989       -2.7912966978
 H         -0.0888230131        2.7543549613       -2.1131748409
 C         -1.3827554207        2.2373094714        0.1818368440
 H         -1.6589535299        3.1057440052       -0.4304292803
 C         -1.5448086665        2.6052964072        1.6424237090
 C         -0.9641868940        3.8953103983        2.1357898198
 C         -2.4495793133        3.7398908224        2.0137515215
 H         -3.0367575605        3.6556601921        2.9160311542
 H         -2.9543356073        4.2598380312        1.2124634008
 H         -0.4597068351        4.5207949440        1.4149979146
 H         -0.5291049697        3.9215040272        3.1230144125
 H         -1.5265941715        1.7533593955        2.3096339830
 O         -1.6713514556       -0.4134364808        1.4427092930
