  62
        -98.94532045
 C         -2.3625483475       -0.3692884437        0.0948245086
 C         -1.5529848035        0.2858248476       -0.8598397837
 C         -1.5843259953        1.7589747534       -0.8534128093
 C         -2.3280736582        2.3947974360        0.0683497049
 C         -2.5873352857        3.8721054109        0.2453185544
 C         -1.4541155120        4.8564843332       -0.0520270400
 C         -0.0686168762        4.4059966666        0.4323495943
 H          0.3740884362        5.1990479850        1.0382567005
 H         -0.1577408051        3.5225697141        1.0686510222
 C          0.8914394035        4.0898319476       -0.7153360894
 H          1.9150728858        4.1268931354       -0.3341958026
 H          0.7954206893        4.8571990960       -1.4870598980
 C          0.6923882641        2.7097068546       -1.3360893944
 H          1.4153766110        2.5920259417       -2.1472779190
 H          0.9204457501        1.9509402468       -0.5835979347
 C         -0.7186262687        2.4299500476       -1.8823453522
 H         -1.1794288926        3.3370953687       -2.2665342724
 H         -0.6271656204        1.7140352040       -2.7036916003
 H         -1.7233640749        5.7953618594        0.4357533684
 H         -1.4138484738        5.0586807861       -1.1211057681
 H         -3.4544318337        4.1311648765       -0.3711209778
 H         -2.8959437798        3.9809751362        1.2885966301
 O         -3.0510673515        1.7192481370        1.0095235154
 C         -3.0867171641        0.3377805295        1.0503649417
 O         -3.7898657161       -0.1352320079        1.9685537578
 H         -0.4266541311       -0.9791614321        1.6471359911
 C         -0.1243418517       -1.8483446416        1.0809332422
 C         -1.0314415105       -2.4641292450        0.2284473803
 C         -0.6188882065       -3.5888194472       -0.4759631791
 C          0.6756382388       -4.0620334238       -0.3474529954
 C          1.5900849774       -3.4134098783        0.4622490121
 C          1.1840869372       -2.2925531756        1.1770552127
 N          2.0810051071       -1.5774730206        1.9986817568
 S          2.3927553755        0.0153175162        1.5770935482
 O          3.3754343107        0.4703640024        2.5378566671
 O          1.1621110107        0.7606848502        1.5262502449
 C          3.1576210457       -0.0916493320       -0.0325888738
 C          4.5282886011        0.0660093207       -0.1143142725
 C          5.1502883385       -0.0703935840       -1.3442331471
 C          4.3947076735       -0.3716149973       -2.4675365008
 C          3.0218160940       -0.5319537832       -2.3672304425
 C          2.3900113074       -0.3932099845       -1.1401994484
 H          1.3200512004       -0.5045883013       -1.0540563912
 H          2.4255153492       -0.7649251159       -3.2347493740
 H          4.8771400659       -0.4809952412       -3.4260951318
 H          6.2180692577        0.0564855380       -1.4221600846
 H          5.0723422939        0.3004588060        0.7864417877
 H          2.9604432068       -2.0535958841        2.1486453217
 H          2.6075448981       -3.7657098634        0.5417894767
 H          0.9814225685       -4.9368420451       -0.9005817271
 H         -1.3109547646       -4.0925750984       -1.1307501965
 C         -2.4216597775       -1.8856999936        0.1265836660
 H         -2.9728893716       -2.1497293313        1.0416187833
 C         -3.1946051751       -2.3951054300       -1.0739403181
 C         -4.0089970133       -3.6493280849       -0.9776228268
 C         -4.6905933149       -2.3171172847       -1.0534796297
 H         -5.2064748180       -2.0494836487       -1.9633356592
 H         -5.1511927267       -1.9223719990       -0.1591729828
 H         -4.0195932826       -4.1683452730       -0.0310837281
 H         -4.0619572943       -4.2977537412       -1.8392242239
 H         -2.6954137250       -2.1766024175       -2.0110898478
 O         -0.8509260773       -0.3336584581       -1.7022230364
