  62
        -98.93801995
 C          2.4842893466        1.1851916983       -0.0948010468
 C          3.2478470547        0.4879426457        0.8678565889
 C          4.0229976008       -0.6662096844        0.3801279627
 C          3.9628135126       -0.9871989480       -0.9242803706
 C          4.6194329574       -2.1534488629       -1.6097727961
 C          3.6565893691       -3.3508793776       -1.6820556838
 C          3.6750652070       -4.2679698333       -0.4595139247
 H          2.8612849150       -4.9868773487       -0.5797243540
 H          4.6103082049       -4.8314311956       -0.4475990616
 C          3.5131603380       -3.5646326678        0.8908703718
 H          2.7326266695       -2.8043446793        0.8193727093
 H          3.1734047745       -4.3063622332        1.6166760831
 C          4.8159564637       -2.9306142310        1.4013046726
 H          5.6492108240       -3.3029717784        0.8057730400
 H          4.9983916419       -3.2570869030        2.4272588417
 C          4.8370790912       -1.3944094985        1.4148359789
 H          4.4510493197       -1.0340858175        2.3738567174
 H          5.8748766713       -1.0514679870        1.3480447993
 H          2.6472438568       -2.9595273556       -1.8343876144
 H          3.9090882689       -3.9515779292       -2.5580498105
 H          4.8462505112       -1.8285685203       -2.6271994964
 H          5.5463357420       -2.4223152924       -1.1121852419
 O          3.2115887588       -0.2884914519       -1.8190162381
 C          2.4478391296        0.8006630316       -1.4351638561
 O          1.7979196344        1.3257145121       -2.3574176557
 O          3.2699487026        0.8058742583        2.0893665300
 C          1.6440229473        2.3696034574        0.3437253195
 C          0.1826281866        2.1073583558        0.0695490995
 C         -0.6766984225        3.0613034804       -0.4593101941
 C         -2.0099852529        2.7592207260       -0.6779484834
 C         -2.5152942132        1.5081116340       -0.3772703660
 C         -1.6690631749        0.5505984464        0.1671419025
 C         -0.3368114658        0.8597825805        0.3933823109
 H          0.3198985948        0.1122440626        0.8227251829
 N         -2.1648311991       -0.7304301454        0.4637630021
 S         -3.5905202026       -0.8596894797        1.3397268926
 O         -3.7710170715        0.2658091548        2.2271615433
 O         -3.5323983756       -2.1646750085        1.9614482990
 C         -4.8608694724       -0.8660478151        0.0927745893
 C         -4.7642714080       -1.7881721429       -0.9308182846
 C         -5.7500615399       -1.8123230288       -1.9043224544
 C         -6.8112372780       -0.9217240282       -1.8362426588
 C         -6.8956756882       -0.0046182646       -0.7999190953
 C         -5.9120598602        0.0258133536        0.1764773088
 H         -5.9320852234        0.7252455927        0.9969783947
 H         -7.7214444937        0.6866093152       -0.7487642901
 H         -7.5767070227       -0.9429238512       -2.5957864488
 H         -5.6871988136       -2.5238884149       -2.7118625695
 H         -3.9252944598       -2.4638487456       -0.9467492720
 H         -1.4663683916       -1.3644197559        0.8234262544
 H         -3.5505003735        1.2675346608       -0.5555319441
 H         -2.6645243056        3.5088978898       -1.0954910479
 H         -0.3018716283        4.0411482815       -0.7050937967
 H          1.7772753170        2.4363306095        1.4344430399
 C          2.1598055386        3.6457507655       -0.2878493112
 C          2.0269616838        4.9550280853        0.4291892501
 C          3.3702042841        4.3036986030        0.3015952301
 H          4.0969753292        4.7404923755       -0.3666532052
 H          3.8042491737        3.8463724805        1.1789970406
 H          1.8337582077        5.8440541761       -0.1519987376
 H          1.5519445255        4.9488015600        1.3986835074
 H          2.0702352630        3.6389950489       -1.3682638345
