  62
        -98.93976355
 C         -0.8008970404       -1.8976169705        0.3920909151
 C         -1.3593679044       -0.7719471326        1.0407816880
 C         -2.6601612642       -0.2859932187        0.5409632082
 C         -3.2248353564       -0.9151610628       -0.5063806984
 C         -4.5052450777       -0.5735718068       -1.2211634476
 C         -4.3534644006        0.6430131360       -2.1470491182
 C         -3.6243658791        1.8316126818       -1.5262576958
 H         -2.6220637547        1.5219697884       -1.2245131270
 H         -3.5108867271        2.5901968788       -2.3050392819
 C         -4.3362828754        2.4789029721       -0.3409715994
 H         -3.7777375264        3.3808257944       -0.0823937923
 H         -5.3378164127        2.7865370186       -0.6496235186
 C         -4.4586845670        1.6183344665        0.9194694711
 H         -5.2782063199        0.9093507968        0.8344128998
 H         -4.7153605068        2.2866728883        1.7464097953
 C         -3.1806301660        0.8922089102        1.3278584623
 H         -2.3540481317        1.6091971024        1.3729676832
 H         -3.3022419930        0.5263054683        2.3545625863
 H         -3.7909272615        0.3279659693       -3.0294497315
 H         -5.3479781225        0.9519727601       -2.4739340440
 H         -4.7662412372       -1.4429310405       -1.8287557912
 H         -5.3063456576       -0.4170374842       -0.5053082494
 O         -2.6365732140       -1.9835826067       -1.1165500304
 C         -1.4208897042       -2.4960791888       -0.7041672645
 O         -1.0188537394       -3.4623807302       -1.3796799840
 O         -0.7944690059       -0.1841809224        2.0029449137
 C          0.5542269098       -2.4032470573        0.8584098816
 C          1.5683177562       -2.0322099252       -0.1950089351
 C          2.1861538601       -2.9529018874       -1.0304765949
 C          3.0602551900       -2.5233918320       -2.0141744682
 C          3.3487708026       -1.1801567212       -2.1698949399
 C          2.7400528925       -0.2508113631       -1.3331133908
 C          1.8520843146       -0.6813130982       -0.3618688537
 H          1.3726205446        0.0420382968        0.2825248940
 N          2.9983520357        1.1227373324       -1.4641083576
 S          3.2090024237        2.0429823639       -0.0799680586
 O          3.9820120251        3.1853209351       -0.5238280602
 O          3.7937432935        1.2656813224        0.9878983499
 C          1.5861184091        2.6149396950        0.3699052804
 C          0.7593454410        3.1116581859       -0.6181784599
 C         -0.4670388408        3.6446112677       -0.2568352252
 C         -0.8391364318        3.6791300871        1.0788948016
 C         -0.0014272943        3.1680836735        2.0576644169
 C          1.2242950938        2.6302497374        1.7015866698
 H          1.9016066488        2.2143630559        2.4303673843
 H         -0.2992448157        3.1784537347        3.0937267307
 H         -1.7877810982        4.1090267301        1.3614765999
 H         -1.1278264543        4.0326207480       -1.0155710569
 H          1.0852253703        3.0735414370       -1.6445126702
 H          3.6798727768        1.3595177177       -2.1708949019
 H          4.0363510847       -0.8490050172       -2.9335564715
 H          3.5286727290       -3.2466336877       -2.6645924259
 H          1.9709400480       -4.0028856614       -0.9224538670
 H          0.7861773115       -1.8250156496        1.7642851870
 C          0.5315947529       -3.8740454649        1.2100018615
 C          1.6369313866       -4.4462494237        2.0448748683
 C          0.2659013111       -4.2824066518        2.6267117235
 H         -0.3282784635       -5.1661013860        2.8048539022
 H          0.1091658502       -3.4974230407        3.3521409392
 H          1.9865899008       -5.4437012023        1.8263260812
 H          2.4123716675       -3.7704327007        2.3736666751
 H          0.1099675425       -4.4934831682        0.4278064920
