  62
        -98.93998631
 C          2.1051670415        1.4458596034        0.5347868515
 C          2.0600935169        0.2393419013        1.2807091559
 C          3.1176164463       -0.7368101003        1.0052628454
 C          4.0723343952       -0.4437810322        0.1041386573
 C          5.2332602597       -1.3234098468       -0.2733209648
 C          4.8971026159       -2.3741012791       -1.3405784895
 C          4.0192835792       -3.5311056884       -0.8615500917
 H          4.0455742997       -4.2953616417       -1.6408618409
 H          4.4558094070       -3.9683096788        0.0370000787
 C          2.5566380945       -3.1483598083       -0.5940888981
 H          2.3349174537       -2.1931924781       -1.0756369448
 H          1.8989053630       -3.8929758989       -1.0472271978
 C          2.1851136870       -3.0525979362        0.8858592801
 H          2.2625941030       -4.0388868128        1.3487617429
 H          1.1461510584       -2.7214850522        0.9547364839
 C          3.0444154692       -2.0679774789        1.6894448874
 H          2.5732688466       -1.9157289286        2.6635271788
 H          4.0438117337       -2.4742424956        1.8436426081
 H          5.8426572217       -2.7873834396       -1.6994462928
 H          4.4129344586       -1.8734848775       -2.1822869822
 H          5.6230723470       -1.8180358538        0.6168468784
 H          6.0073600132       -0.6638356108       -0.6715902845
 O          4.0957806872        0.7316976320       -0.5749897513
 C          3.0959145800        1.6879846237       -0.4172879822
 O          3.2294343138        2.6726828104       -1.1656964090
 O          1.1735424006       -0.0028343422        2.1429684061
 C          0.9731814672        2.4244393238        0.7929964874
 C         -0.2243781792        2.0141309086       -0.0257794761
 C         -0.1201778109        1.8235908944       -1.4004238817
 C         -1.2177706255        1.4150134447       -2.1354840129
 C         -2.4331673118        1.1758458753       -1.5170662928
 C         -2.5421642864        1.3453833749       -0.1434678742
 C         -1.4409313936        1.7681866055        0.5913653585
 H         -1.5270665161        1.8884478503        1.6624309801
 N         -3.7666311767        1.0936777229        0.4966698977
 S         -4.6208770264       -0.2879055386        0.0939007344
 O         -5.2609832028       -0.1015520964       -1.1839176830
 O         -5.5000747949       -0.5206871124        1.2168329283
 C         -3.4016184828       -1.5845130274       -0.0184087851
 C         -2.7919505129       -2.0040336180        1.1474212615
 C         -1.8268424371       -2.9949313359        1.0809206532
 C         -1.4849967216       -3.5427302186       -0.1461866833
 C         -2.1043400994       -3.1094246168       -1.3078884106
 C         -3.0731404799       -2.1204730776       -1.2466985753
 H         -3.5841351422       -1.7628260571       -2.1255257880
 H         -1.8353868496       -3.5378681749       -2.2599775752
 H         -0.7318357739       -4.3134648177       -0.1944396881
 H         -1.3417440807       -3.3310657594        1.9834531388
 H         -3.0860630091       -1.5636706677        2.0865609466
 H         -3.7367951242        1.2172935062        1.4981275663
 H         -3.2977235064        0.8624425460       -2.0788025434
 H         -1.1272787520        1.2786775740       -3.2025379513
 H          0.8311675517        1.9991565083       -1.8814510339
 H          0.7101411715        2.2763901831        1.8528225698
 C          1.3530183135        3.8866741163        0.6245449400
 C          0.8329159460        4.7587547881       -0.4744878331
 C          0.3422063306        4.9537009467        0.9267913895
 H          0.6585630358        5.8294044445        1.4728592198
 H         -0.6651702863        4.6337485460        1.1487855104
 H          1.5107185927        5.4848286885       -0.8964719894
 H          0.1550114686        4.3290402251       -1.1949510999
 H          2.3718724812        4.0795970124        0.9430358887
