  62
        -98.94206485
 C         -1.6997364718       -1.3438229249        0.2376821641
 C         -1.0130650397       -2.2748486899       -0.5757263737
 C          0.3428776426       -2.6333416785       -0.1379693809
 C          0.8451550812       -2.0839698861        0.9822411314
 C          2.2292416296       -2.2848882172        1.5361583006
 C          3.3620408898       -1.7354197185        0.6471319395
 C          4.0160772981       -2.7901573673       -0.2542813212
 H          5.0960423181       -2.6300054192       -0.2585290013
 H          3.8466518143       -3.7778970009        0.1764651140
 C          3.5605117253       -2.7896705088       -1.7167666956
 H          4.0531080390       -1.9693999532       -2.2444570042
 H          3.8987602055       -3.7242021767       -2.1711345912
 C          2.0571790346       -2.6378854076       -1.9597246854
 H          1.8586026242       -2.8871029440       -3.0049056074
 H          1.7671834682       -1.5903828978       -1.8418682644
 C          1.1589929705       -3.5010072471       -1.0511582869
 H          0.4501204584       -4.0618717640       -1.6644323688
 H          1.7564113844       -4.2092632204       -0.4786642958
 H          2.9804840009       -0.9081281643        0.0464610641
 H          4.1246197897       -1.3268191342        1.3115960911
 H          2.2412056575       -1.7664185126        2.4965500762
 H          2.3916364800       -3.3482235557        1.7237264088
 O          0.1202215862       -1.2553272082        1.7801676610
 C         -1.1483625439       -0.8364999122        1.4134249568
 O         -1.6689779535       -0.0253807002        2.2031454758
 H         -0.8906225486        0.4769114312       -1.2794257087
 C         -1.6102352048        1.1963732068       -0.9193762767
 C         -2.8097663337        0.7506512557       -0.3766515548
 C         -3.7337549197        1.6944706707        0.0512868179
 C         -3.4371223467        3.0451278875       -0.0272978771
 C         -2.2161487981        3.4807203046       -0.5085873795
 C         -1.2897081121        2.5434369727       -0.9567264329
 N         -0.0419633107        2.9542219674       -1.4512056939
 S          1.3807390329        2.0997467622       -1.3570855428
 O          2.3366635743        2.9347708248       -2.0523752265
 O          1.2124556109        0.7673914896       -1.8834504188
 C          1.8879655177        1.9744328416        0.3526042993
 C          0.9733715490        1.7958972899        1.3696178153
 C          1.4375618859        1.6214716995        2.6648937333
 C          2.7985385268        1.6268614455        2.9227072364
 C          3.7062687083        1.8155050785        1.8913979330
 C          3.2488600350        1.9884888679        0.5957907761
 H          3.9174497486        2.1367400629       -0.2367967619
 H          4.7657842377        1.8219557015        2.0909506925
 H          3.1518502721        1.4821249057        3.9315683435
 H          0.7189833819        1.4622975810        3.4532414410
 H         -0.0854509409        1.7720884415        1.1658118068
 H          0.1325385213        3.9467492679       -1.4070414186
 H         -1.9759624282        4.5325003250       -0.5356901463
 H         -4.1601696036        3.7700124263        0.3144870801
 H         -4.6779846833        1.3742968711        0.4602343192
 C         -3.0066626618       -0.7427849782       -0.2488312068
 H         -3.1760101256       -1.1653259073       -1.2504447356
 C         -4.1637632097       -1.1255533952        0.6484336153
 C         -5.5498728410       -1.2388010386        0.0892916306
 C         -4.7951713801       -2.4734747698        0.4776902707
 H         -5.1041106116       -3.0138621208        1.3597610862
 H         -4.4052650288       -3.1055412371       -0.3069323239
 H         -6.3816978878       -0.9340802675        0.7063231529
 H         -5.6831251234       -1.0381588818       -0.9631376334
 H         -4.0453643963       -0.7519857121        1.6591900001
 O         -1.5039816581       -2.7670589496       -1.6281418333
