  62
        -98.94642646
 C         -1.1890119800       -1.2527484699        0.0465747810
 C         -1.5795477297       -0.2740827991        0.9939894303
 C         -2.4402253995        0.8005985708        0.4910664995
 C         -2.7432867394        0.8512277999       -0.8186081105
 C         -3.6210100492        1.8755291997       -1.4858740612
 C         -5.1200084593        1.5575599701       -1.3934693810
 C         -5.7434294292        1.7729756412       -0.0136588312
 H         -5.4969305590        2.7734242214        0.3433160181
 H         -6.8268906392        1.7317045514       -0.1419682412
 C         -5.3326082395        0.7331751218        1.0383877095
 H         -6.2183162996        0.3975091124        1.5826055997
 H         -4.9132460497       -0.1438889886        0.5400589001
 C         -4.3299101694        1.2391475923        2.0759114992
 H         -4.7871829392        2.0331282828        2.6704776786
 H         -4.0891496696        0.4119827627        2.7486005298
 C         -3.0164419093        1.7659647016        1.4818717488
 H         -2.2937448792        1.8805352120        2.2931685388
 H         -3.1785170990        2.7381272313        1.0176973482
 H         -5.6356003191        2.2058111097       -2.1057844515
 H         -5.2802693195        0.5242219699       -1.7093583303
 H         -3.4389132789        2.8608757899       -1.0560630019
 H         -3.3371518092        1.8929035289       -2.5402604312
 O         -2.2533262496       -0.0425066008       -1.7157842399
 C         -1.4786081499       -1.1215470407       -1.3120290491
 O         -1.1212424001       -1.8626557015       -2.2459354586
 O         -1.2317103898       -0.3048817784        2.2052915103
 C         -0.3725448003       -2.4371493497        0.5398064618
 C          1.0632880898       -2.2271941104        0.1310561117
 C          1.6645839296       -2.8818909612       -0.9354329379
 C          2.9713158097       -2.5888099818       -1.2892177580
 C          3.7038056899       -1.6475011415       -0.5882629787
 C          3.1083546501       -0.9875773906        0.4791414009
 C          1.8002563500       -1.2781954201        0.8306794110
 H          1.3310646301       -0.7541951494        1.6537247807
 N          3.8442870703       -0.0065025803        1.1857644802
 S          4.1252405407        1.4090889190        0.3370219592
 O          4.9265254106        1.1029787680       -0.8193815005
 O          4.6963040409        2.3337622296        1.2887752686
 C          2.5098746408        1.9738055891       -0.1675332812
 C          1.8662939910        2.9266137298        0.5963166581
 C          0.5959848112        3.3361049198        0.2263242278
 C         -0.0095470090        2.7784708592       -0.8887124118
 C          0.6421575108        1.8093915385       -1.6353020211
 C          1.9155140507        1.4004715285       -1.2741320708
 H          2.4523208905        0.6554641079       -1.8390345603
 H          0.1606751707        1.3628189781       -2.4915182808
 H         -0.9954974489        3.0999132592       -1.1821596920
 H          0.0812358613        4.0848793204        0.8064704573
 H          2.3770013811        3.3378449502        1.4523691079
 H          3.4248232904        0.2291909504        2.0752346500
 H          4.7154905300       -1.3970230019       -0.8628485388
 H          3.4255680196       -3.1013045625       -2.1237421377
 H          1.1031121195       -3.6065828615       -1.5013662574
 H         -0.4170024103       -2.3789710890        1.6363882218
 C         -0.9512249806       -3.7647493099        0.1017785927
 C         -0.5065678309       -5.0174836395        0.7937793636
 C         -1.8909205808       -4.4893108890        1.0164866332
 H         -2.7231700909       -5.0227653791        0.5822701835
 H         -2.1162730707       -4.0320972783        1.9690574629
 H         -0.3867923611       -5.9162688299        0.2086263642
 H          0.2103005591       -4.9159482091        1.5946045235
 H         -1.1571623006       -3.8163178406       -0.9598806673
