  62
        -98.94306349
 C          1.2009345619        1.1281438610       -0.0675179430
 C          1.7646032363        0.1939702184        0.8360385406
 C          2.6346419625       -0.8324442448        0.2472134609
 C          2.8363180811       -0.8382312768       -1.0828591921
 C          3.7389181184       -1.7927805125       -1.8085873774
 C          5.1602444609       -1.2263573683       -1.9337263633
 C          5.7329544811       -0.6977374082       -0.6185326821
 H          6.7492805648       -0.3536076764       -0.8223437302
 H          5.1560277769        0.1749546642       -0.3038951626
 C          5.7599343319       -1.7255806367        0.5214007380
 H          5.6655673757       -2.7328943250        0.1140131462
 H          6.7294830124       -1.6683597312        1.0207230646
 C          4.6921368881       -1.5099137778        1.5954413313
 H          4.7247646795       -0.4732502512        1.9397377709
 H          4.9375132477       -2.1462386104        2.4498616869
 C          3.2516886676       -1.8355651078        1.1805691629
 H          3.2121389819       -2.8388578339        0.7515564329
 H          2.6362501011       -1.8197218968        2.0841682603
 H          5.8104852477       -2.0097861050       -2.3274771410
 H          5.1435923688       -0.4054021284       -2.6544840450
 H          3.7611731252       -2.7415204994       -1.2757793647
 H          3.3344645203       -1.9577210294       -2.8088759667
 O          2.2680117755        0.0652336047       -1.9221754188
 C          1.4427460351        1.0751812242       -1.4407530975
 O          0.9915975972        1.8266443611       -2.3257096715
 H         -0.8722375743        0.1655033346       -0.9201592212
 C         -1.5854590447        0.9234755481       -0.6231400189
 C         -1.1534901957        2.0341768810        0.0836798063
 C         -2.1044880324        2.9809522245        0.4562292158
 C         -3.4394081371        2.8126093153        0.1361792972
 C         -3.8622722092        1.7005490968       -0.5726296553
 C         -2.9211016670        0.7620307075       -0.9631788824
 N         -3.3439432069       -0.3955052390       -1.6675686854
 S         -3.9707666458       -1.5749738132       -0.6521815321
 O         -4.0763877274       -2.7760808913       -1.4492421681
 O         -5.1934160987       -1.0749822881       -0.0786689970
 C         -2.7311659565       -1.7719528603        0.6145742169
 C         -2.7956727350       -0.9816636449        1.7444600238
 C         -1.7735048970       -1.0623278134        2.6758089964
 C         -0.7057455459       -1.9190371170        2.4595643941
 C         -0.6531032027       -2.7021694056        1.3169284286
 C         -1.6719030511       -2.6259352391        0.3811210561
 H         -1.6678634529       -3.2197313552       -0.5197229702
 H          0.1838571877       -3.3611731880        1.1483592120
 H          0.0966122216       -1.9618357249        3.1783578905
 H         -1.8020045758       -0.4476890104        3.5607980161
 H         -3.6402628689       -0.3242104040        1.8732633912
 H         -2.5977338985       -0.8079589013       -2.2111310971
 H         -4.8992183643        1.5399459928       -0.8177836796
 H         -4.1610402263        3.5543627231        0.4419909253
 H         -1.7915574888        3.8537004135        1.0067746952
 C          0.2918544245        2.1984535212        0.4957935342
 H          0.3374252679        2.0664954278        1.5876822308
 C          0.8037449027        3.5879208245        0.1560021568
 C          0.7650586785        4.6911747603        1.1693512450
 C          2.0737482597        4.0679835515        0.7910663677
 H          2.7692596660        4.6348799349        0.1907363015
 H          2.5490251593        3.4099804985        1.5043114257
 H          0.5576036406        5.6943037036        0.8288685240
 H          0.3731042413        4.4649522969        2.1496694095
 H          0.6431276218        3.8468838998       -0.8840994986
 O          1.5502528479        0.2199085533        2.0761878120
