  62
        -98.94285073
 C         -2.0971418995       -1.5120270237        0.1121471660
 C         -1.7133653760       -0.3725182822       -0.6393632294
 C         -2.7554080766        0.6532232569       -0.8195019404
 C         -3.9789089896        0.4600890391       -0.2970566949
 C         -5.1100425434        1.4438054255       -0.3659739264
 C         -5.1071325597        2.3771722640        0.8529112326
 C         -3.7439917571        3.0029920013        1.1486531325
 H         -3.8709560484        3.6651661242        2.0078558263
 H         -3.0476737130        2.2167829144        1.4496941759
 C         -3.1412768143        3.7924114145       -0.0215732230
 H         -3.9218166784        4.0382741262       -0.7426533028
 H         -2.7457600330        4.7355580609        0.3609501993
 C         -1.9904233184        3.0846025664       -0.7392750403
 H         -1.2497924058        2.7528191967       -0.0073797329
 H         -1.5062082755        3.8125418316       -1.3955500967
 C         -2.3832745765        1.8800913383       -1.6037033102
 H         -3.1889249385        2.1610834341       -2.2851887829
 H         -1.5112638654        1.5975534273       -2.2006475573
 H         -5.4180545140        1.8030782344        1.7289790559
 H         -5.8435604748        3.1653977940        0.6855492690
 H         -6.0489675205        0.8876202298       -0.3842190156
 H         -5.0263118534        2.0246751981       -1.2824256301
 O         -4.3125273814       -0.6500811460        0.4095903092
 C         -3.3796015398       -1.6436790295        0.6530064877
 O         -3.8066893701       -2.5822980066        1.3549710915
 O         -0.5748554571       -0.2044427109       -1.1446690450
 C         -1.1218720689       -2.6338935938        0.4312620241
 C          0.1838593550       -2.0465092829        0.9042397060
 C          0.2361271465       -1.4392893779        2.1555834855
 C          1.4046709174       -0.8588659684        2.6113777250
 C          2.5434843554       -0.8629638561        1.8250287118
 C          2.4950553462       -1.4503859486        0.5679352313
 C          1.3243508749       -2.0472874773        0.1185560950
 H          1.2955237515       -2.4835113283       -0.8674876769
 N          3.6365167376       -1.4413187173       -0.2493692991
 S          4.5925733617       -0.0710854795       -0.2847613392
 O          5.2613183854       -0.1164896148       -1.5667969622
 O          5.4586736064       -0.0608385264        0.8694499538
 C          3.4840046584        1.3249812205       -0.2151181824
 C          2.5116194788        1.4436906530       -1.1874443394
 C          1.6551238195        2.5308017034       -1.1470705887
 C          1.7816548328        3.4742614881       -0.1395147471
 C          2.7645855462        3.3418459974        0.8289315337
 C          3.6261457527        2.2575838109        0.7924165884
 H          4.4049454398        2.1159671856        1.5244128898
 H          2.8608823434        4.0775731149        1.6112873051
 H          1.1089851069        4.3171724353       -0.1099311237
 H          0.8860211076        2.6268354784       -1.8956789833
 H          2.4237333803        0.6943128595       -1.9569075470
 H          3.4758972245       -1.7993175818       -1.1792548590
 H          3.4651570957       -0.4217582163        2.1678195109
 H          1.4311424678       -0.3962423649        3.5863563351
 H         -0.6575247580       -1.4230677798        2.7650206269
 H         -1.5767860559       -3.1723223469        1.2783608614
 C         -0.9491755614       -3.6544613884       -0.6840281478
 C         -2.1186711474       -4.0664776274       -1.5260439571
 C         -0.9927159548       -3.2898323015       -2.1363642040
 H         -0.3255677219       -3.8052803826       -2.8124837959
 H         -1.1596319004       -2.2557052168       -2.3922564837
 H         -2.2263958394       -5.1095975500       -1.7826654717
 H         -3.0576688689       -3.5603557986       -1.3547123176
 H         -0.2590992354       -4.4441044458       -0.4011315925
