  62
        -98.94358193
 C          2.6461355264        0.1168720480       -0.1676813400
 C          2.1428553743        0.8875088253        0.9098582058
 C          1.7515146164        2.2691906521        0.5839588947
 C          1.8653761675        2.7153116081       -0.6787041297
 C          1.4702349334        4.0847131867       -1.1498891204
 C          0.0208438019        4.1147211534       -1.6517648722
 C         -0.9875388090        3.4898707180       -0.6865712074
 H         -1.9794528063        3.6259944325       -1.1245510547
 H         -0.8158406027        2.4121090512       -0.6278011436
 C         -0.9710214852        4.0857908688        0.7277098200
 H         -0.4883300772        5.0645101042        0.7126080547
 H         -2.0027272001        4.2353862230        1.0534131652
 C         -0.2994878718        3.2041743598        1.7828391615
 H         -0.7053121237        2.1901807172        1.7267534050
 H         -0.5541139069        3.6022767649        2.7694900129
 C          1.2306698614        3.1199998320        1.7078918264
 H          1.6534596323        4.1262929227        1.6563651901
 H          1.5808423557        2.6453266267        2.6294086527
 H         -0.2535996819        5.1542419298       -1.8432991760
 H         -0.0301896101        3.5674505532       -2.5958471143
 H          1.5968805998        4.7921632051       -0.3324559201
 H          2.1337999846        4.3670667487       -1.9694547757
 O          2.3429509146        1.9460943436       -1.6905117411
 C          2.7198924960        0.6353681020       -1.4634081266
 O          3.1236569987        0.0380137569       -2.4834573054
 H          0.4837873537       -1.0439105765        0.7918367528
 C          0.6128519025       -1.9144469224        0.1673076310
 C          1.8648152969       -2.2371808652       -0.3321665201
 C          1.9958324050       -3.3804311773       -1.1124080430
 C          0.8941649317       -4.1655623539       -1.4012038257
 C         -0.3626531144       -3.8090027313       -0.9463047124
 C         -0.5017798041       -2.6719183968       -0.1592749534
 N         -1.7577869244       -2.2562577619        0.3125018373
 S         -2.0385764850       -0.5853215335        0.3120876743
 O         -1.4063232805        0.0183492125       -0.8383141157
 O         -1.6836076767       -0.0578541403        1.6042989668
 C         -3.8129722089       -0.5516789594        0.1335658581
 C         -4.5944295440       -0.8039131303        1.2456785791
 C         -5.9730786058       -0.8169981234        1.1063639780
 C         -6.5442913396       -0.5786445026       -0.1350953162
 C         -5.7473631172       -0.3234552909       -1.2409094819
 C         -4.3673687586       -0.3111418834       -1.1089106486
 H         -3.7067386794       -0.1113698044       -1.9374857915
 H         -6.1937268540       -0.1343362311       -2.2038490983
 H         -7.6175380339       -0.5889558887       -0.2409006040
 H         -6.5957109025       -1.0118228054        1.9645160206
 H         -4.1047843659       -0.9728596487        2.1905944167
 H         -2.5246839139       -2.7666766339       -0.1044263214
 H         -1.2290249972       -4.4005995646       -1.2005365658
 H          1.0098908049       -5.0494299272       -2.0098387026
 H          2.9650493869       -3.6390532859       -1.5118382937
 C          3.0521748270       -1.3441019862       -0.0523464692
 H          3.7873634454       -1.5160900846       -0.8520473422
 C          3.6915448114       -1.7179976308        1.2701502811
 C          4.6668361991       -2.8542858593        1.3176964291
 C          5.1483851962       -1.4451552809        1.4860040182
 H          5.4686879512       -1.1161111286        2.4627950621
 H          5.6952392399       -0.9917705264        0.6718132771
 H          4.6575703158       -3.5009875776        2.1814136012
 H          4.8988097424       -3.3585218632        0.3920585750
 H          3.0306232606       -1.5835266730        2.1162536501
 O          2.0267758137        0.4737082634        2.0944606321
