  62
        -98.94399337
 C         -2.0446155079       -0.7642895009        0.1470963203
 C         -1.7296555206       -1.7928419579       -0.7703148791
 C         -0.7548358538       -2.8034986142       -0.3212727930
 C         -0.2391522893       -2.7053214740        0.9162616224
 C          0.8223936157       -3.5623902746        1.5488568206
 C          2.2183597745       -2.9632241818        1.3031705559
 C          2.9026679160       -3.4280416587        0.0191757636
 H          3.8267828685       -2.8538513230       -0.0821210470
 H          3.1766396327       -4.4810959115        0.1177586649
 C          2.0835394483       -3.2549606583       -1.2621890429
 H          1.6192593504       -2.2662046849       -1.2792410893
 H          2.7769156947       -3.2855379268       -2.1058669836
 C          1.0217754931       -4.3484266513       -1.4537698199
 H          1.2119347094       -5.1602246824       -0.7516882522
 H          1.1205137180       -4.7750836686       -2.4545422911
 C         -0.4317690217       -3.8779006010       -1.3232724791
 H         -0.7637773400       -3.4691616797       -2.2833090340
 H         -1.0694810695       -4.7454783477       -1.1182192661
 H          2.1243085383       -1.8740410064        1.2878866894
 H          2.8650556157       -3.2247533002        2.1432262699
 H          0.6245374992       -3.5564396709        2.6226679635
 H          0.7634072932       -4.5848804757        1.1885929169
 O         -0.5995743059       -1.7189062050        1.7828060046
 C         -1.4811624507       -0.7132287145        1.4207960230
 O         -1.6730147343        0.1418907806        2.3054884049
 H         -0.6502434139        0.7533424798       -1.5391238275
 C         -0.9565109894        1.6457030129       -1.0121377408
 C         -2.1583582776        1.6491305540       -0.3128377196
 C         -2.5455558363        2.8139711045        0.3357568917
 C         -1.7325099658        3.9342430141        0.3025294404
 C         -0.5198699711        3.9132388117       -0.3612381661
 C         -0.1276833015        2.7559808463       -1.0261271275
 N          1.0922922678        2.7062272659       -1.7259021591
 S          2.1539563209        1.4333141601       -1.5057907734
 O          3.3430458741        1.8257455540       -2.2298398287
 O          1.5371836246        0.1961808042       -1.9057770342
 C          2.4998524980        1.4134948193        0.2413380590
 C          1.5731594727        0.8358996524        1.0842919329
 C          1.7952674976        0.8599272319        2.4515747870
 C          2.9438393715        1.4554291673        2.9497163570
 C          3.8696381802        2.0290004230        2.0901683035
 C          3.6457405641        2.0159459440        0.7227380541
 H          4.3383358244        2.4475888459        0.0183772447
 H          4.7624403035        2.4885189520        2.4827280581
 H          3.1160578673        1.4703548948        4.0143266224
 H          1.0592132705        0.4170041299        3.1047896676
 H          0.6904034659        0.3786946491        0.6659515975
 H          1.6007566418        3.5792006186       -1.7259408844
 H          0.1185564230        4.7835857886       -0.3715731969
 H         -2.0424616182        4.8329969483        0.8134901787
 H         -3.4787972034        2.8433680610        0.8732137574
 C         -2.9570103794        0.3672865991       -0.2935953976
 H         -3.2419712008        0.1264978657       -1.3286239571
 C         -4.2068698413        0.4315576218        0.5565274005
 C         -5.4669241694        1.0169458071       -0.0053039661
 C         -5.3606437523       -0.4612765826        0.2152506551
 H         -5.9237835073       -0.9063623424        1.0217099175
 H         -5.2534857259       -1.1030664696       -0.6473253694
 H         -6.1086758243        1.5863723891        0.6497620790
 H         -5.4391206648        1.3799842469       -1.0216214141
 H         -3.9909149244        0.5874526303        1.6070760654
 O         -2.2355706686       -1.8579919597       -1.9244525580
