  62
        -98.94713607
 C         -1.6356241479       -1.5239532591       -0.2497014871
 C         -2.8362535495       -1.2288567736        0.4449770762
 C         -3.6196827550       -0.0977837042       -0.0672634548
 C         -3.1680832356        0.5849847179       -1.1349965414
 C         -3.8359241140        1.7928780554       -1.7250359407
 C         -3.3150976416        3.0927961624       -1.0949353625
 C         -3.2720722181        3.0668507254        0.4328097802
 H         -2.5429761304        2.3215773193        0.7592124958
 H         -2.9096475496        4.0421802996        0.7647296643
 C         -4.6252111734        2.7788045712        1.0983621413
 H         -4.7630514165        3.4758954130        1.9275677429
 H         -5.4334662531        2.9578850937        0.3881372923
 C         -4.7636161702        1.3692160052        1.6760360536
 H         -5.6579051276        1.3459012462        2.3045640984
 H         -3.9070077416        1.1496767039        2.3182451201
 C         -4.8974591973        0.2387398749        0.6479575814
 H         -5.1881212375       -0.6679443347        1.1865637564
 H         -5.6875682199        0.4813297613       -0.0656208515
 H         -2.3046094551        3.2786084387       -1.4650318165
 H         -3.9519756072        3.9142999503       -1.4281662554
 H         -3.6298322282        1.8107739615       -2.7967370744
 H         -4.9110494593        1.7119510134       -1.5758724772
 O         -2.0179711012        0.2678716916       -1.7806362816
 C         -1.2196514608       -0.7870234650       -1.3582344712
 O         -0.1984315486       -0.9527642394       -2.0518292482
 H          1.6787364839       -2.2785507477       -0.9067831356
 C          1.6340165937       -1.8688554349        0.0894453926
 C          0.4816445327       -2.0137408554        0.8458421692
 C          0.4456882178       -1.4526705805        2.1198075083
 C          1.5351398428       -0.7654707639        2.6215519049
 C          2.6751972955       -0.6005596109        1.8536774649
 C          2.7141335351       -1.1465957149        0.5779381291
 N          3.8442643343       -0.9276393836       -0.2321004420
 S          4.3804109568        0.6569622108       -0.3258761557
 O          4.9609358445        0.7916503651       -1.6440143746
 O          5.2755860384        0.9206885259        0.7747712748
 C          2.9301522022        1.6883553071       -0.1667282173
 C          2.9147451301        2.6853833142        0.7881627691
 C          1.7874463681        3.4809879805        0.9122084565
 C          0.6956843964        3.2645991461        0.0856603272
 C          0.7282645303        2.2612642194       -0.8696773521
 C          1.8542081310        1.4651329557       -1.0022660979
 H          1.8770944470        0.6729841461       -1.7338866303
 H         -0.1195610134        2.0737396235       -1.5100049025
 H         -0.1863680482        3.8776293727        0.1865713258
 H          1.7604411559        4.2623849519        1.6544736104
 H          3.7816876362        2.8126268802        1.4160913819
 H          3.7526654169       -1.3233853382       -1.1570389598
 H          3.5287214040       -0.0514644680        2.2175165350
 H          1.4944990411       -0.3428283776        3.6137830437
 H         -0.4571340190       -1.5500975782        2.7062961278
 C         -0.7637845458       -2.6507122226        0.2826018378
 H         -1.3320891672       -3.0935412886        1.1110783337
 C         -0.4995701803       -3.7209141793       -0.7544503790
 C          0.0590461366       -5.0410327224       -0.3169613035
 C         -1.3628885813       -4.9450244711       -0.7796674115
 H         -1.6245113509       -5.3704226681       -1.7370012061
 H         -2.1474411939       -5.0192685644       -0.0410423289
 H          0.7756879078       -5.5361806183       -0.9543334579
 H          0.2408997208       -5.1786856893        0.7381725851
 H         -0.1792000871       -3.3272508860       -1.7112380771
 O         -3.2330791136       -1.8831412613        1.4452908091
