  62
        -98.94486373
 C         -1.8419438198       -1.0898686400       -0.1642297690
 C         -2.9976017097       -1.1511586001        0.6610512910
 C         -4.2141808800       -0.5282076408        0.1315883608
 C         -4.1946576602        0.0353093987       -1.0894790295
 C         -5.3590099205        0.6835885380       -1.7875429797
 C         -5.5926639110        2.1466189281       -1.3868626103
 C         -6.1701767511        2.3529199884        0.0139833596
 H         -6.4864437715        3.3959103283        0.0794025892
 H         -7.0607271908        1.7350367882        0.1332446299
 C         -5.1838608110        2.0642873293        1.1544882697
 H         -5.2324521413        2.8700668996        1.8904614794
 H         -4.1643294210        2.0535508695        0.7615452197
 C         -5.4408215905        0.7543971195        1.8998137403
 H         -6.4044179605        0.8073921193        2.4113448602
 H         -4.6627712504        0.6345584801        2.6580795703
 C         -5.4298620500       -0.4935676809        1.0073443508
 H         -5.4009199996       -1.3756652506        1.6515752411
 H         -6.3356294900       -0.5312493615        0.4023980808
 H         -6.2898608912        2.5750792375       -2.1106536205
 H         -4.6482086612        2.6888765884       -1.4748567606
 H         -6.2648562203        0.1056641477       -1.6020310195
 H         -5.1380478805        0.6507504077       -2.8566654897
 O         -3.0767801502        0.0587164588       -1.8588653795
 C         -1.8743110300       -0.4746004505       -1.4155148393
 O         -0.9438924201       -0.3282853005       -2.2356531894
 O         -3.0104594395       -1.7134837696        1.7878555312
 C         -0.5834702395       -1.7345608093        0.3914883012
 C          0.3655497801       -0.7203678487        0.9837067708
 C          0.7749657501       -0.8089436180        2.3087315408
 C          1.6837401798        0.0965590326        2.8295642304
 C          2.2020816594        1.1075229825        2.0405118800
 C          1.7915016794        1.2080155918        0.7176921000
 C          0.8869461197        0.2960656012        0.1960606304
 H          0.5783694897        0.3775328607       -0.8355459397
 N          2.3315121190        2.2221939816       -0.1030414905
 S          3.9977998890        2.1483298922       -0.2885330004
 O          4.6281378288        2.7222232529        0.8739201093
 O          4.2838815287        2.7964028618       -1.5487959307
 C          4.3529428197        0.4023683023       -0.3733826897
 C          4.9487689199       -0.2308909971        0.6979908805
 C          5.1441159904       -1.6013906370        0.6405852611
 C          4.7364713107       -2.3109280976       -0.4780041186
 C          4.1384724704       -1.6598671583       -1.5460817289
 C          3.9404751699       -0.2900972683       -1.4944078194
 H          3.4798602697        0.2473315511       -2.3083840097
 H          3.8196650906       -2.2120810788       -2.4158392586
 H          4.8861210311       -3.3784476476       -0.5186990382
 H          5.6078379406       -2.1116423665        1.4691546313
 H          5.2482461197        0.3593224334        1.5483028303
 H          1.8898405489        2.2586659711       -1.0114080305
 H          2.9185157392        1.8168041729        2.4225576797
 H          1.9929027399        0.0136753631        3.8601675805
 H          0.3695603005       -1.5902574179        2.9345980211
 H         -0.9335222793       -2.3806424491        1.2076013415
 C          0.1537474208       -2.5932590494       -0.6194344884
 C          1.0867538812       -3.6559576889       -0.1255492980
 C         -0.2135458187       -4.0379604596       -0.7655097478
 H         -0.1983004085       -4.4750719200       -1.7526002477
 H         -1.0022849985       -4.4193163997       -0.1333956277
 H          2.0003168313       -3.8299152887       -0.6716838380
 H          1.1817631013       -3.7803832584        0.9421629720
 H          0.4300864106       -2.0559533597       -1.5170921487
