  62
        -98.94263771
 C         -1.9546075517       -1.5554733270       -0.0421120527
 C         -1.5780165615       -0.2775972200       -0.5276616505
 C         -2.6707641689        0.7022390837       -0.6551006369
 C         -3.9286812322        0.3411431891       -0.3473333600
 C         -5.1229259788        1.2485752843       -0.3990612617
 C         -5.3614059256        1.9279630585        0.9565246959
 C         -4.1073420411        2.5666869248        1.5533239746
 H         -4.4005916580        3.0447445680        2.4905741207
 H         -3.3914933874        1.7804789542        1.8045623316
 C         -3.4276870863        3.5984563831        0.6426245741
 H         -4.1266394129        3.9298947410       -0.1262231448
 H         -3.1670490704        4.4737270014        1.2414750484
 C         -2.1371115284        3.1114782773       -0.0194931301
 H         -1.4725475243        2.6881821087        0.7376582384
 H         -1.6347973664        3.9809799898       -0.4504856297
 C         -2.3048854638        2.0770217900       -1.1393383761
 H         -3.0332528147        2.4367630798       -1.8689351212
 H         -1.3372558280        1.9676847399       -1.6376234887
 H         -5.7324075346        1.1782965413        1.6594726364
 H         -6.1354129424        2.6874593467        0.8313745887
 H         -5.9990680389        0.6497164006       -0.6540549808
 H         -4.9707253619        1.9988250686       -1.1724056421
 O         -4.2526318731       -0.8986674584        0.1022098827
 C         -3.2753982490       -1.8599388446        0.2982021723
 O         -3.7014417447       -2.9318927221        0.7732984461
 O         -0.4048476984        0.0432491796       -0.8449144534
 C         -0.9311438683       -2.6539024384        0.1962391302
 C          0.2854333848       -2.0665627788        0.8663212117
 C          0.1594794087       -1.5581236187        2.1559523031
 C          1.2345839643       -0.9668979040        2.7915596650
 C          2.4595802443       -0.8693042193        2.1550514906
 C          2.5934349262       -1.3691922692        0.8671106579
 C          1.5141604848       -1.9715485437        0.2342533360
 H          1.6286124848       -2.3342115384       -0.7751932568
 N          3.8319648552       -1.2728664229        0.2047757034
 S          4.5850790465        0.2198961183        0.1264720195
 O          5.5943488078        0.0710762271       -0.8985179321
 O          5.0643519095        0.5792398124        1.4379934598
 C          3.3369572164        1.3731952883       -0.4092473362
 C          3.0455567003        1.4372374986       -1.7566985723
 C          2.0643730321        2.3125700932       -2.1891701753
 C          1.3904718620        3.0996593840       -1.2694699475
 C          1.6881135060        3.0170422871        0.0809387040
 C          2.6700277721        2.1443490647        0.5197633377
 H          2.9347320971        2.0561895920        1.5608114915
 H          1.1563460168        3.6277275080        0.7931743145
 H          0.6276054252        3.7827886484       -1.6086448911
 H          1.8243653675        2.3749395820       -3.2386720228
 H          3.5999210038        0.8164271247       -2.4424221995
 H          3.8241269930       -1.6948922857       -0.7129728239
 H          3.3076642982       -0.4055778593        2.6322138468
 H          1.1195681625       -0.5757740137        3.7914540404
 H         -0.8012030207       -1.6217744031        2.6497820753
 H         -1.4123537024       -3.3433401945        0.9091083576
 C         -0.5981640081       -3.4746296684       -1.0409709761
 C         -1.6403615132       -3.7485536466       -2.0825842206
 C         -0.4754120720       -2.8634539242       -2.4034174559
 H          0.2855998143       -3.2444976223       -3.0693170698
 H         -0.6436076213       -1.8019391475       -2.4933617526
 H         -1.6781273420       -4.7334219991       -2.5234454890
 H         -2.6111576667       -3.2937249338       -1.9499373340
 H          0.0759371276       -4.2944987770       -0.8105137980
