  62
        -98.93831757
 C         -2.1947723296       -0.9048551997       -0.0875366442
 C         -2.9162154490       -0.2300669815        0.9223486348
 C         -3.7205960995        0.9295691354        0.4984603856
 C         -3.7195287913        1.2944231519       -0.7976484910
 C         -4.4005560179        2.4450161019       -1.5094563124
 C         -5.5177756348        3.2340014972       -0.8315551773
 C         -6.8051617381        2.4453154689       -0.5944798577
 H         -7.4903657212        3.0745676184       -0.0222879379
 H         -7.2704665359        2.2409783158       -1.5619806125
 C         -6.6375455092        1.1100870616        0.1264064134
 H         -7.6278904840        0.6577181281        0.2264471861
 H         -6.0365323763        0.4348115949       -0.4860041657
 C         -6.0229389033        1.1930455400        1.5222454245
 H         -6.1112174465        0.2039926923        1.9799026824
 H         -6.5919005816        1.8957724463        2.1340603164
 C         -4.5378296850        1.5927515638        1.5697235661
 H         -4.1266436863        1.2512143233        2.5244614814
 H         -4.4171733559        2.6729811785        1.5320970235
 H         -5.7593056051        4.0655905710       -1.4991423036
 H         -5.1618953174        3.6704794446        0.0970907458
 H         -3.5994788464        3.1421137644       -1.7794334022
 H         -4.7761244966        2.0302680883       -2.4502124186
 O         -2.9809659774        0.6274693219       -1.7327645319
 C         -2.2094287895       -0.4781559349       -1.4142268837
 O         -1.6000833597       -0.9744031038       -2.3791388230
 O         -2.8809837664       -0.5719261482        2.1366208029
 C         -1.3535513321       -2.1118299707        0.2824924053
 C          0.0999252444       -1.8576916423       -0.0360516466
 C          0.9165798502       -2.7842909264       -0.6701827244
 C          2.2461868671       -2.4909526411       -0.9209514933
 C          2.7901663989       -1.2769673516       -0.5456054509
 C          1.9868590841       -0.3479532416        0.1033536278
 C          0.6574178212       -0.6468338485        0.3573102082
 H          0.0332271009        0.0781187456        0.8664978757
 N          2.5272552160        0.8936668049        0.4825800244
 S          3.9557707860        0.9020512543        1.3661649565
 O          4.0954597695       -0.2991001960        2.1564412066
 O          3.9415563755        2.1525295190        2.0936136239
 C          5.2288011254        0.9684756151        0.1234676660
 C          6.2093766712       -0.0034818770        0.0880824872
 C          7.1944255175        0.0739748213       -0.8842829081
 C          7.1818712312        1.1167733677       -1.7978581093
 C          6.1913869852        2.0864605120       -1.7469421514
 C          5.2042900981        2.0152999775       -0.7770911179
 H          4.4195004772        2.7494405713       -0.7010741239
 H          6.1847233714        2.8957338528       -2.4592537556
 H          7.9485638966        1.1747645557       -2.5542380168
 H          7.9654316119       -0.6785018888       -0.9255060910
 H          6.1757790502       -0.7980637991        0.8163432175
 H          1.8519862128        1.5189103687        0.8980207850
 H          3.8226753890       -1.0429251296       -0.7466535256
 H          2.8669157336       -3.2183387589       -1.4213528528
 H          0.5117272966       -3.7357755459       -0.9729603226
 H         -1.4469382523       -2.2098871364        1.3749730989
 C         -1.9088151702       -3.3620666727       -0.3669692942
 C         -1.7392627115       -4.6969232031        0.2929601198
 C         -3.0861973969       -4.0413307624        0.2636086095
 H         -3.8493117581       -4.4535909394       -0.3792900146
 H         -3.4705923163       -3.6173022176        1.1800130015
 H         -1.5798436728       -5.5640000032       -0.3300832725
 H         -1.2107423598       -4.7258989282        1.2339200957
 H         -1.8789163069       -3.3154618748       -1.4497540294
