  62
        -98.94184424
 C         -1.9924225440        0.9869895927       -0.3679796187
 C         -2.2801435424       -0.1173700377        0.4718390590
 C         -3.5275000872       -0.8373493125        0.1734141769
 C         -4.2809397132       -0.4782668009       -0.8804043561
 C         -5.5553626566       -1.1400333358       -1.3292384542
 C         -6.8069025848       -0.6536876849       -0.5856547135
 C         -6.9322501322       -1.1344192237        0.8606432190
 H         -7.9481969664       -0.9041408464        1.1876626612
 H         -6.8182372879       -2.2184631354        0.8929963699
 C         -5.9406437367       -0.4808851539        1.8332745948
 H         -5.5285681439        0.4233612487        1.3793345146
 H         -6.4684822982       -0.1723573199        2.7384998722
 C         -4.7880779494       -1.3864766186        2.2675199188
 H         -4.1298504335       -0.8123284354        2.9245795955
 H         -5.1808379933       -2.2303622895        2.8391017258
 C         -3.9427434037       -1.9325747345        1.1093364973
 H         -3.0356387829       -2.3768782299        1.5265296656
 H         -4.4939827030       -2.7042600862        0.5723470661
 H         -7.6760021901       -1.0124485979       -1.1419182058
 H         -6.8249881274        0.4384009349       -0.6098466888
 H         -5.6708519980       -0.9031157582       -2.3891567994
 H         -5.4645875553       -2.2215651041       -1.2234983899
 O         -3.9423976235        0.5535689165       -1.6980981246
 C         -2.8181407542        1.3209431584       -1.4463472695
 O         -2.6582989436        2.2657301697       -2.2449769357
 H          0.2605046394       -0.5845801250        0.1087936377
 C          0.8434596302        0.0200338752       -0.5702329436
 C          0.4431162509        1.3230493528       -0.8342026054
 C          1.2090984522        2.0911449186       -1.7028710359
 C          2.3416587440        1.5633401487       -2.2989461771
 C          2.7364012535        0.2643280903       -2.0352440779
 C          1.9802730869       -0.5095003155       -1.1636035089
 N          2.3833643384       -1.8255086308       -0.8733519391
 S          3.9893115694       -2.0528979458       -0.4543332694
 O          4.7946003576       -2.1006456455       -1.6495372901
 O          4.0079974301       -3.2420424065        0.3674278582
 C          4.4194394805       -0.6128591092        0.5069048479
 C          3.7835418426       -0.4290145849        1.7188708200
 C          4.0628198424        0.7100288077        2.4565432143
 C          4.9647021412        1.6435518854        1.9692853637
 C          5.5986500157        1.4420071837        0.7532647179
 C          5.3242816638        0.3039554912        0.0117417720
 H          5.7944553236        0.1082916185       -0.9379843327
 H          6.3009645121        2.1687084583        0.3780221709
 H          5.1723946206        2.5328963164        2.5427767442
 H          3.5689478413        0.8690480709        3.4015438440
 H          3.0874740495       -1.1746906035        2.0699483808
 H          1.7691057863       -2.2984869864       -0.2263047441
 H          3.6107862169       -0.1664595437       -2.4953823069
 H          2.9228313816        2.1689247409       -2.9772147310
 H          0.9022161775        3.1033516614       -1.9217520066
 C         -0.7859477830        1.8929089548       -0.1745745590
 H         -1.0424072331        2.8230154919       -0.7053882336
 C         -0.5582394101        2.2601157866        1.2870222950
 C          0.5802877230        1.7479413833        2.1113526405
 C          0.5683828172        3.1765586655        1.6640114856
 H          0.3833086473        3.9506602234        2.3930058832
 H          1.2588674661        3.4572048339        0.8830040508
 H          0.3801208441        1.5219243917        3.1475781594
 H          1.2872944385        1.0781393444        1.6485671247
 H         -1.4983000063        2.4065969025        1.8102610018
 O         -1.5492699875       -0.5065663455        1.4193719832
