  62
        -98.94579417
 C         -2.1915682641       -1.1682643248        0.2003797957
 C         -1.8674655751       -0.2479940101       -0.8263718178
 C         -2.6357304230        1.0071764847       -0.8241651422
 C         -3.5716876632        1.2077416626        0.1215799752
 C         -4.4002257097        2.4518400477        0.2594651695
 C         -3.7269140416        3.4730122457        1.1868056122
 C         -2.2593351726        3.7370682989        0.8499143779
 H         -1.6822227535        2.8278340745        1.0359772998
 H         -1.8945334944        4.4941017017        1.5477676291
 C         -2.0142664315        4.2070989551       -0.5908214763
 H         -1.3149308642        5.0456503321       -0.5704220764
 H         -2.9459869605        4.5725061603       -1.0239503153
 C         -1.4079183531        3.1438893016       -1.5083273226
 H         -0.5229581787        2.7176038371       -1.0298389510
 H         -1.0769423130        3.6382598712       -2.4253998607
 C         -2.3434584329        1.9984671343       -1.9160867892
 H         -1.8495896966        1.4292107215       -2.7090622562
 H         -3.2712866034        2.4102485533       -2.3183170743
 H         -3.7820258153        3.1002229514        2.2124495029
 H         -4.2869952009        4.4083950364        1.1360384175
 H         -5.3674494234        2.1743447689        0.6819711853
 H         -4.5570853592        2.8882645987       -0.7250617476
 O         -3.8424532992        0.3061520020        1.1002846844
 C         -3.1604887216       -0.8992926628        1.1660130305
 O         -3.4986689092       -1.6307937761        2.1194174671
 O         -0.9881922745       -0.4596156064       -1.6990119360
 C         -1.4831514426       -2.5086430004        0.2664018710
 C          0.0134030736       -2.3344164020        0.3639111705
 C          0.9128064146       -3.1718209382       -0.2845694152
 C          2.2771511279       -2.9822221565       -0.1460151571
 C          2.7756032776       -1.9526934977        0.6302133839
 C          1.8846862818       -1.1050676654        1.2767580977
 C          0.5189603577       -1.3080139985        1.1511757441
 H         -0.1699976293       -0.6481673408        1.6651796626
 N          2.3802188104       -0.0340301428        2.0391435549
 S          3.6309554682        0.8684809952        1.3853663986
 O          4.8910135451        0.2512509141        1.7200888172
 O          3.4374584735        2.2077307938        1.8980386494
 C          3.4028207140        0.8315319570       -0.3844050588
 C          2.1578991628        1.1303963047       -0.8999906183
 C          1.9659103498        1.0771992731       -2.2700975895
 C          3.0238298361        0.7394289176       -3.0999256490
 C          4.2726546481        0.4551395826       -2.5695948154
 C          4.4656416512        0.4949221649       -1.1980574049
 H          5.4143726678        0.2639019525       -0.7412876552
 H          5.0929589182        0.1936737685       -3.2185101640
 H          2.8691234738        0.6941571186       -4.1663373676
 H          0.9854315204        1.2712477981       -2.6735719882
 H          1.3472704983        1.3838210529       -0.2346333050
 H          1.6636830418        0.5631262847        2.4245026646
 H          3.8349143525       -1.7906184823        0.7486640765
 H          2.9626473255       -3.6429272987       -0.6538553193
 H          0.5444937165       -3.9748568854       -0.9012082482
 H         -1.8279568457       -2.9884755667        1.1947932405
 C         -1.9066712145       -3.3669447803       -0.9094302724
 C         -2.0160247472       -4.8543836861       -0.7658770249
 C         -3.2551147816       -4.0189998820       -0.8751439837
 H         -3.8316843395       -4.0629066893       -1.7869131573
 H         -3.8539395622       -3.8695729008        0.0120170444
 H         -1.7444875933       -5.4754265968       -1.6062315992
 H         -1.7808872384       -5.2843830202        0.1961120176
 H         -1.5691356176       -2.9655843725       -1.8579773276
