  62
        -98.94280923
 C         -1.3916665646       -1.3863536537        0.6720471271
 C         -1.8480863727       -1.0241500890       -0.6197427095
 C         -2.7050568597        0.1678561255       -0.6806004459
 C         -2.9810906232        0.8583178221        0.4396392172
 C         -3.8823262976        2.0590123048        0.5406818773
 C         -3.1975505331        3.3895155680        0.2024037412
 C         -2.8712997277        3.5982857214       -1.2766597787
 H         -3.7703438584        3.4358394421       -1.8720510945
 H         -2.5868232935        4.6450661678       -1.3975321470
 C         -1.7339137201        2.7133813401       -1.8061189222
 H         -1.1638540206        2.3073878147       -0.9673515393
 H         -1.0430979337        3.3200626002       -2.3950022517
 C         -2.1931678219        1.5587353383       -2.6963363293
 H         -1.3139863595        0.9751934776       -2.9817935041
 H         -2.6467882187        1.9542310132       -3.6079378921
 C         -3.1940671617        0.6077352940       -2.0273098267
 H         -4.1697479388        1.0858654676       -1.9420277561
 H         -3.2928925848       -0.2822764376       -2.6536132560
 H         -2.2814301740        3.4626490275        0.7900025882
 H         -3.8683130272        4.1905021015        0.5217687598
 H         -4.2259284175        2.1026134087        1.5765911635
 H         -4.7492359585        1.9174548558       -0.1055418911
 O         -2.4716510051        0.5131946696        1.6528677505
 C         -1.6525788669       -0.5955240850        1.7932480446
 O         -1.2221099101       -0.7668926515        2.9523596609
 O         -1.5741230528       -1.6574810953       -1.6706610041
 C         -0.4967978279       -2.5943491373        0.8858296469
 C          0.6174033666       -2.5878346181       -0.1323508106
 C          0.8853228522       -3.6341821636       -1.0038245165
 C          1.9406100286       -3.5444630607       -1.8952246238
 C          2.7582538814       -2.4301005545       -1.9198654077
 C          2.4978700635       -1.3759432683       -1.0503949189
 C          1.4274771846       -1.4595606484       -0.1774880175
 H          1.2191077073       -0.6367462478        0.4904426593
 N          3.2979909172       -0.2241886503       -1.0519741126
 S          3.6430573514        0.5849362687        0.3706754788
 O          4.9089225728        1.2381242985        0.1112557446
 O          3.6050017491       -0.2994494067        1.5109862472
 C          2.3893302732        1.8427391910        0.5004498389
 C          1.4677793164        1.8108793006        1.5273497304
 C          0.5390496262        2.8353543224        1.6280529042
 C          0.5535571728        3.8733947973        0.7093270071
 C          1.4829989141        3.8891439513       -0.3199767725
 C          2.4092660268        2.8657716234       -0.4280072897
 H          3.1577886532        2.8486364110       -1.2024733075
 H          1.4875709526        4.6971413157       -1.0333640017
 H         -0.1606732664        4.6770671460        0.7971573780
 H         -0.1881958586        2.8083782891        2.4253692984
 H          1.4846130021        0.9949258377        2.2348727067
 H          4.0953883540       -0.2593445928       -1.6696935153
 H          3.5866270824       -2.3682050186       -2.6093134212
 H          2.1339889084       -4.3594982763       -2.5763181843
 H          0.2567994662       -4.5094150660       -1.0021381609
 H         -0.0329558288       -2.4330951875        1.8742726398
 C         -1.2368009416       -3.9207506299        0.9715198534
 C         -2.6611363955       -3.9810346094        1.4352287982
 C         -2.3220940975       -4.3035469566        0.0124920211
 H         -2.3822754504       -5.3344873907       -0.3049172893
 H         -2.5826301233       -3.5934303828       -0.7554848596
 H         -2.9521086008       -4.7860983781        2.0933532814
 H         -3.1584759013       -3.0448074097        1.6446140730
 H         -0.5883302834       -4.7203986321        1.3173329893
