  62
        -98.94538491
 C         -1.6906101034       -0.8870505740        0.1485642360
 C         -2.7302694240       -0.5903422467        1.0610951583
 C         -3.4349732050        0.6806764065        0.8444563056
 C         -3.0411032975        1.4886290355       -0.1570146223
 C         -3.7024831219        2.7853432206       -0.5221343530
 C         -4.8004158850        2.5711778641       -1.5736050752
 C         -5.7734944143        1.4432034180       -1.2304431902
 H         -6.5200025198        1.4046708583       -2.0266245790
 H         -5.2371806139        0.4916532229       -1.2466133082
 C         -6.4789166346        1.6028586872        0.1235734301
 H         -6.4070307544        2.6380084614        0.4596236285
 H         -7.5396236239        1.3773615213       -0.0052468217
 C         -5.9576810121        0.6761240493        1.2235414651
 H         -5.9422003655       -0.3538219059        0.8579483611
 H         -6.6588003574        0.7147901277        2.0615321952
 C         -4.5667020023        1.0125270701        1.7757500613
 H         -4.5314731636        2.0641515278        2.0684925760
 H         -4.4077371523        0.4023239199        2.6700254836
 H         -5.3513027818        3.5060177447       -1.6919957364
 H         -4.3244605531        2.3339442749       -2.5277903707
 H         -4.1256183297        3.2369772644        0.3731997326
 H         -2.9449797330        3.4558198267       -0.9319485778
 O         -2.0111632065        1.1892930237       -0.9886717975
 C         -1.3210806658       -0.0123199159       -0.8738623468
 O         -0.4178614846       -0.1651616189       -1.7142322316
 H          0.2702878855       -0.1664070869        1.5509286524
 C          0.9904541988       -0.8719592915        1.1546453439
 C          0.5393520573       -1.9870349410        0.4611717435
 C          1.4828376709       -2.8788684269       -0.0354854025
 C          2.8351044088       -2.6563721114        0.1593683627
 C          3.2793686245       -1.5364707493        0.8373858901
 C          2.3451719838       -0.6330961156        1.3279171930
 N          2.7854558586        0.5315890536        1.9788442166
 S          4.0591181386        1.3704492897        1.2849729237
 O          5.3054980275        0.8288655848        1.7693278665
 O          3.8168452712        2.7598223239        1.6095169283
 C          3.9420936839        1.1029021282       -0.4763262171
 C          2.7307148134        1.3103191795       -1.1045962131
 C          2.6301895922        1.0744360486       -2.4655790344
 C          3.7433493999        0.6518457401       -3.1756054887
 C          4.9579326478        0.4630214008       -2.5342690756
 C          5.0595068262        0.6835484247       -1.1702952460
 H          5.9784260917        0.5313278489       -0.6275912527
 H          5.8219306442        0.1357118630       -3.0899656974
 H          3.6592759819        0.4657400729       -4.2346647714
 H          1.6737093059        1.1958422426       -2.9479991551
 H          1.8715415092        1.6338969947       -0.5384019072
 H          2.0405459162        1.1600013322        2.2414999986
 H          4.3285463342       -1.3449704488        0.9952327378
 H          3.5540176854       -3.3612887383       -0.2285532213
 H          1.1575328757       -3.7512080386       -0.5778824721
 C         -0.9451596143       -2.2000306728        0.2890354174
 H         -1.3319681307       -2.6574451916        1.2128165189
 C         -1.2790766488       -3.1089728702       -0.8780881001
 C         -1.3891782016       -4.5914068885       -0.6871401832
 C         -2.6227910673       -3.7715305619       -0.9122145542
 H         -3.1356079329       -3.8534796755       -1.8588544679
 H         -3.2813075577       -3.5962813672       -0.0736415747
 H         -1.0559539290       -5.2398552507       -1.4834628919
 H         -1.2192018688       -4.9840373822        0.3040677377
 H         -0.8792151175       -2.7401986018       -1.8160560641
 O         -3.0506309872       -1.3504283800        2.0154442786
