  62
        -98.94081173
 C         -1.6439748844       -0.0971766788        0.7155217657
 C         -2.9103738346       -0.1036520666        1.3543784436
 C         -4.0437386364       -0.5785439271        0.5500875261
 C         -3.8314814178       -0.9537403883       -0.7241759677
 C         -4.9010532591       -1.4068018071       -1.6744253696
 C         -5.4723941918       -0.2257863050       -2.4713398336
 C         -5.8657747460        0.9709102116       -1.6052445795
 H         -4.9655492798        1.3975690070       -1.1567812314
 H         -6.2836269398        1.7302629010       -2.2698143201
 C         -6.8786976775        0.6478565956       -0.4978721850
 H         -7.6457171155        1.4251846091       -0.4871843951
 H         -7.3784128384       -0.2965777461       -0.7164783785
 C         -6.2829263368        0.5912530667        0.9100925521
 H         -5.7024927580        1.4978683044        1.0993597643
 H         -7.1074359801        0.5760887513        1.6279232709
 C         -5.3931365168       -0.6216323588        1.2102871099
 H         -5.2005144629       -0.6328362486        2.2871765911
 H         -5.9221314363       -1.5398575087        0.9466305349
 H         -4.7179256014        0.1049031723       -3.1888465305
 H         -6.3429623205       -0.5747552795       -3.0297128832
 H         -4.4620790181       -2.1241332746       -2.3697958407
 H         -5.6939301417       -1.8976701020       -1.1133716147
 O         -2.6100174860       -0.9131288001       -1.3108700103
 C         -1.4856574734       -0.4741642778       -0.6195374870
 O         -0.4468189095       -0.4756129775       -1.3030147708
 O         -3.0853866979        0.2746688438        2.5437823103
 C         -0.4562986864        0.3996009225        1.5207445482
 C          0.3325460483        1.4017257984        0.7184296436
 C         -0.2673536321        2.6119027228        0.3790322431
 C          0.4115184437        3.5495286421       -0.3739078935
 C          1.7073106900        3.3052156803       -0.7943388221
 C          2.3136581432        2.0998117409       -0.4634521608
 C          1.6262452101        1.1574440723        0.2888082662
 H          2.1053995746        0.2219297649        0.5215743995
 N          3.6097203889        1.8086297948       -0.9048359423
 S          4.6402128297        0.8500073405       -0.0140410585
 O          4.4952149906        1.0818610250        1.4051232238
 O          5.9524248448        1.1251733385       -0.5615970220
 C          4.1974547250       -0.8298474039       -0.4060180126
 C          4.4466963963       -1.8062734302        0.5384770176
 C          4.1559889285       -3.1265013765        0.2335054187
 C          3.6218713653       -3.4457441146       -1.0053251048
 C          3.3775903521       -2.4535933147       -1.9419458899
 C          3.6711458183       -1.1322136339       -1.6454188397
 H          3.4807777593       -0.3402821072       -2.3501671111
 H          2.9538177295       -2.7026642566       -2.9014739671
 H          3.3910306175       -4.4729325071       -1.2400169135
 H          4.3431679318       -3.8993530156        0.9621903498
 H          4.8498484350       -1.5121515513        1.4946876865
 H          4.0869221060        2.5476338831       -1.3980665030
 H          2.2410245538        4.0364954063       -1.3821807682
 H         -0.0675929439        4.4819562848       -0.6326681069
 H         -1.2801086379        2.8029024569        0.7079535569
 H         -0.9090099955        0.9317086762        2.3745289922
 C          0.4077845595       -0.7046023303        2.1105914402
 C         -0.1979044422       -2.0062134090        2.5405848544
 C          0.7308491397       -1.9640299081        1.3660842187
 H          1.7211140821       -2.3809859632        1.4780193344
 H          0.3215783250       -2.0810697343        0.3752858051
 H          0.1497092172       -2.4561774773        3.4582349488
 H         -1.2523091118       -2.1502518188        2.3546811041
 H          1.1923825916       -0.3032244277        2.7463294931
