  62
        -98.94797064
 C         -1.2534123492        0.7684319092       -0.3943400581
 C         -2.0927749778        0.5860699277        0.7304919893
 C         -3.0529057363       -0.5205206118        0.6331508643
 C         -3.0419146972       -1.3252307726       -0.4448299261
 C         -3.9386290068       -2.5118517837       -0.6733626030
 C         -5.3121502719       -2.1543406596       -1.2580601616
 C         -6.2761545349       -1.4730700872       -0.2858270862
 H         -7.2613339004       -1.4781942952       -0.7564010352
 H         -6.3478479325       -2.0658413059        0.6265957909
 C         -5.9042830532       -0.0258089306        0.0655839562
 H         -5.1907307699        0.3550674990       -0.6685642996
 H         -6.7946970582        0.6037732522        0.0040729016
 C         -5.3169311078        0.1558744759        1.4652370774
 H         -6.0692032995       -0.0995133138        2.2147398706
 H         -5.0568852401        1.2095220427        1.5936534106
 C         -4.0572299291       -0.6778857786        1.7346760921
 H         -3.5951639509       -0.3166155341        2.6568591755
 H         -4.3198596090       -1.7277867045        1.8644373486
 H         -5.1634993064       -1.5160685918       -2.1320963035
 H         -5.7715172988       -3.0846350573       -1.6001298574
 H         -3.4186392907       -3.1610812506       -1.3815288483
 H         -4.0689515258       -3.0572310160        0.2619765247
 O         -2.1702017499       -1.1582145477       -1.4751372242
 C         -1.2637887712       -0.1107975366       -1.4766255952
 O         -0.5253637571       -0.0708147351       -2.4832569496
 H          0.8454534194       -0.4178019334        0.3279107755
 C          1.2615127079        0.4026010405        0.8920790610
 C          0.7893970758        1.6899874966        0.6783761927
 C          1.3178092078        2.7233816440        1.4417340542
 C          2.2840041234        2.4609355759        2.3979472104
 C          2.7646634006        1.1786482306        2.5934914862
 C          2.2465215026        0.1393635175        1.8293915676
 N          2.7070277665       -1.1785704833        1.9750682790
 S          2.8554129508       -2.1361729257        0.6101365716
 O          1.5624509289       -2.6084011860        0.1812051619
 O          3.8007233688       -3.1618942964        0.9989082540
 C          3.5982770149       -1.0674270410       -0.6108142331
 C          2.8706577353       -0.5879343117       -1.6802952080
 C          3.4834890474        0.2863709648       -2.5654771818
 C          4.8021832968        0.6637613527       -2.3697839456
 C          5.5231090986        0.1653767601       -1.2947586142
 C          4.9165197509       -0.7051535263       -0.4054359607
 H          5.4456316799       -1.1236382150        0.4352545400
 H          6.5508601554        0.4550594558       -1.1468719431
 H          5.2699474071        1.3470911883       -3.0608464957
 H          2.9143321051        0.6671894443       -3.3987651588
 H          1.8427128150       -0.8870659967       -1.8171251611
 H          3.4915190969       -1.2902027306        2.6004010225
 H          3.5247204322        0.9793698815        3.3330129933
 H          2.6777438316        3.2704999614        2.9932787459
 H          0.9684077117        3.7319104036        1.2935389930
 C         -0.2376712917        1.8951862617       -0.4097887011
 H          0.2870286075        1.8150808258       -1.3742026441
 C         -0.9309253589        3.2400917093       -0.3426678569
 C         -0.3316813546        4.4340938039       -1.0211955552
 C         -1.5600463386        3.7890404752       -1.5868821115
 H         -2.5038323853        4.3066011327       -1.5030112787
 H         -1.4632956497        3.2037938472       -2.4902366553
 H         -0.4345847454        5.4001763723       -0.5504929586
 H          0.5997165010        4.2950993744       -1.5488617222
 H         -1.4581961133        3.3894458894        0.5921740666
 O         -2.0453514372        1.3050293864        1.7625306895
