  62
        -98.93916232
 C         -1.2313971919       -1.0251643000        0.5811542772
 C         -1.9610905368       -0.8799954894       -0.6220388699
 C         -2.7795385446        0.3407099780       -0.7427779633
 C         -2.7675717156        1.2554952159        0.2436549165
 C         -3.4824869102        2.5855188119        0.3489037880
 C         -4.7762388258        2.8373957737       -0.4254146464
 C         -5.9329021320        1.8971436572       -0.0955484690
 H         -6.7808184890        2.1794960407       -0.7241169014
 H         -6.2272640649        2.0480731722        0.9460197961
 C         -5.6505482026        0.4085080202       -0.2906072164
 H         -6.5885393061       -0.1312881045       -0.1342167164
 H         -4.9530802131        0.0619003337        0.4747998480
 C         -5.1112591644        0.0171796243       -1.6667973567
 H         -5.7580934134        0.4259113395       -2.4452383894
 H         -5.1557406804       -1.0728375829       -1.7342759431
 C         -3.6561373586        0.4372072668       -1.9567606476
 H         -3.6064453200        1.4365727905       -2.3836417726
 H         -3.2436703228       -0.2567015531       -2.6945851922
 H         -4.5873078439        2.8268856525       -1.4950559151
 H         -5.0935128863        3.8523968101       -0.1703304777
 H         -3.6714139779        2.7306516019        1.4166079909
 H         -2.7607160696        3.3533987277        0.0490964798
 O         -1.9827545615        1.1086504483        1.3497353653
 C         -1.2044366718       -0.0154228708        1.5449787551
 O         -0.5429194087       -0.0042356165        2.6027039699
 H          1.8356986776       -0.9845058793        1.5612034486
 C          1.9408956643       -1.4373165519        0.5832854864
 C          0.8796879720       -2.1672107077        0.0609844128
 C          1.0122594716       -2.7203279265       -1.2065818685
 C          2.1794433164       -2.5426947430       -1.9298874123
 C          3.2369383470       -1.8211045647       -1.4049532217
 C          3.1118822512       -1.2649163044       -0.1389819140
 N          4.1860839145       -0.5091824795        0.3899374420
 S          4.3964107439        0.9987920769       -0.3068365282
 O          4.6093126722        0.8275720446       -1.7202925135
 O          5.4618415059        1.6336710809        0.4336408216
 C          2.8584213296        1.8514125510       -0.0093444530
 C          1.7713267753        1.5738908560       -0.8139299949
 C          0.5588201669        2.1819077404       -0.5311980503
 C          0.4550454183        3.0476118699        0.5462991269
 C          1.5549015221        3.3127794899        1.3467359111
 C          2.7683841655        2.7050058069        1.0718295201
 H          3.6491795765        2.8820597775        1.6682070623
 H          1.4651556312        3.9827870889        2.1866046303
 H         -0.4920662838        3.5110487486        0.7725312023
 H         -0.3022516129        1.9641584656       -1.1448893870
 H          1.8846144597        0.8962933847       -1.6451674195
 H          4.1268818953       -0.3929750404        1.3927278856
 H          4.1457474784       -1.6608789773       -1.9615272988
 H          2.2668956755       -2.9728962954       -2.9160877873
 H          0.1886456293       -3.2663230267       -1.6359978301
 C         -0.3899196163       -2.2594726492        0.8704468934
 H         -0.1138376670       -2.1876030511        1.9311180803
 C         -1.1536899610       -3.5493951578        0.6579809510
 C         -0.5971178997       -4.8223582629        1.2186369539
 C         -1.8193533007       -4.2058706446        1.8282502335
 H         -2.7729414717       -4.6883370005        1.6742920439
 H         -1.7237354526       -3.7288819142        2.7930914728
 H          0.3297786669       -4.7613544108        1.7690319447
 H         -0.7092004108       -5.7307541246        0.6470337551
 H         -1.6688565197       -3.5977655416       -0.2920736533
 O         -1.9483409499       -1.7169173252       -1.5609181241
