  62
        -98.95045143
 C          1.7394853364        1.3125502096       -0.2369725977
 C          2.8560770068        0.7057371014        0.3818400212
 C          3.3033223831       -0.5645196210       -0.2026483315
 C          2.6482721688       -1.0676710080       -1.2650759752
 C          2.9782969795       -2.3678933422       -1.9385075356
 C          2.1670017519       -3.5275490849       -1.3458074878
 C          2.2084441845       -3.5974195603        0.1807146266
 H          1.6705191717       -2.7369955445        0.5868375493
 H          1.6426871617       -4.4836744276        0.4786127203
 C          3.6197857533       -3.6658345776        0.7806437147
 H          3.6248709252       -4.4221001086        1.5686017536
 H          4.3305741537       -3.9870558122        0.0179689784
 C          4.1094236425       -2.3622377548        1.4141714128
 H          4.9989771116       -2.5866226456        2.0093028162
 H          3.3449970408       -1.9817624852        2.0971063867
 C          4.4831478050       -1.2418872319        0.4354539787
 H          5.1654368660       -1.6290239451       -0.3241667483
 H          5.0040814245       -0.4646020450        1.0026005767
 H          2.5422927748       -4.4625149084       -1.7673606240
 H          1.1222762402       -3.4100311013       -1.6436351376
 H          2.7380009392       -2.2748500371       -2.9992542474
 H          4.0435446734       -2.5653162250       -1.8328721893
 O          1.5836818556       -0.4530964837       -1.8376976788
 C          1.0824701902        0.7283643910       -1.3190088123
 O          0.0736959279        1.1630957637       -1.9090839908
 O          3.4510131409        1.2047535042        1.3770517686
 C          1.1870217432        2.6067666941        0.3316515152
 C         -0.2594900176        2.4235602626        0.7204479113
 C         -1.2369618105        3.3889049294        0.5119519435
 C         -2.5528333234        3.1453412369        0.8671815696
 C         -2.9269176687        1.9299188615        1.4106447998
 C         -1.9542162702        0.9625680952        1.6323249636
 C         -0.6320280947        1.2269681962        1.3191312430
 H          0.1099425654        0.4636541346        1.5030948184
 N         -2.2759744829       -0.3137047703        2.1449374672
 S         -2.0555959817       -1.5893784583        1.0737199535
 O         -2.5192569634       -2.7633762039        1.7828745770
 O         -0.6918911087       -1.6166328111        0.6171197512
 C         -3.1865679361       -1.2170710287       -0.2547250089
 C         -2.8168275316       -0.3174487380       -1.2341971804
 C         -3.7492461976        0.0320087495       -2.2001294812
 C         -5.0225144046       -0.5146563866       -2.1696253600
 C         -5.3764338620       -1.4181351973       -1.1783865517
 C         -4.4532207492       -1.7687499387       -0.2074130399
 H         -4.6806687629       -2.4674991584        0.5816615862
 H         -6.3662181717       -1.8449974689       -1.1572156209
 H         -5.7415843258       -0.2351689257       -2.9234763935
 H         -3.4651519819        0.7345973190       -2.9671208489
 H         -1.8191607820        0.0946613007       -1.2465490039
 H         -3.2098342792       -0.3706479490        2.5295298910
 H         -3.9580346400        1.7272284821        1.6585151221
 H         -3.3004712297        3.9049874089        0.6979633710
 H         -0.9690751699        4.3315062701        0.0632558264
 H          1.7712708746        2.8007341474        1.2440876954
 C          1.4059030094        3.7483992704       -0.6402117184
 C          1.6322265072        5.1424482907       -0.1379472156
 C          2.7676037757        4.3667779673       -0.7328530888
 H          3.1389793924        4.6535048564       -1.7051909903
 H          3.5300437610        3.9822162976       -0.0711293708
 H          1.2263569256        5.9668818176       -0.7046079197
 H          1.6311144840        5.2960095338        0.9305909224
 H          0.8519347582        3.6176317266       -1.5631554024
