  62
        -98.94290321
 C          2.6632234818        1.1729156671        0.1585754005
 C          2.7476494288        0.1943900808       -0.8605920565
 C          3.9883539491       -0.5940809465       -0.8858955862
 C          4.9518505594       -0.3380282229        0.0179352153
 C          6.2422205540       -1.0955155203        0.1346512540
 C          6.1094086720       -2.2728350483        1.1107602884
 C          4.8856286681       -3.1522584961        0.8540385784
 H          4.9121141926       -3.9665599995        1.5813527287
 H          3.9813011362       -2.5727570426        1.0536145663
 C          4.8092102316       -3.7350954016       -0.5639855466
 H          5.7893385879       -3.6826008995       -1.0394015042
 H          4.5389879641       -4.7908381880       -0.4942814198
 C          3.7709631868       -3.0683742504       -1.4684967032
 H          2.8060788349       -3.0329243542       -0.9562238388
 H          3.6463067629       -3.6907656904       -2.3585864823
 C          4.1137806202       -1.6516473472       -1.9462282391
 H          5.1139154889       -1.6424654385       -2.3843674826
 H          3.3943144922       -1.3806822681       -2.7244505441
 H          7.0152869930       -2.8783503304        1.0463412645
 H          6.0384076637       -1.8747215865        2.1256623720
 H          6.5357723139       -1.4566456264       -0.8490345072
 H          7.0089229329       -0.4128456703        0.5049520451
 O          4.8391517996        0.6221308236        0.9716732338
 C          3.6929745941        1.3926309754        1.0729143293
 O          3.7102881928        2.2246460348        2.0029474667
 H         -0.9834850922        2.1139950352       -1.0805513478
 C         -0.9531497979        1.3572199187       -0.3120584918
 C          0.1940481306        1.1854996135        0.4455564157
 C          0.1930648369        0.2065533443        1.4360843878
 C         -0.9183311440       -0.5858262027        1.6474823816
 C         -2.0573957847       -0.4194990324        0.8784764019
 C         -2.0724285965        0.5600107216       -0.1034993586
 N         -3.2251292773        0.7334802063       -0.8878403302
 S         -4.7033085981        0.8956514210       -0.1107661786
 O         -5.5366286630        1.6327884184       -1.0355958769
 O         -4.5466064475        1.4661894382        1.2070667157
 C         -5.3146207688       -0.7718799821        0.0139906468
 C         -5.6919999282       -1.2748444934        1.2435614343
 C         -6.1826183751       -2.5693787642        1.3163515591
 C         -6.2872217104       -3.3332864095        0.1641302216
 C         -5.9054226397       -2.8126560738       -1.0635230493
 C         -5.4153470888       -1.5190188566       -1.1432470764
 H         -5.1115744274       -1.0774431593       -2.0776751396
 H         -5.9879434534       -3.4101932768       -1.9571473143
 H         -6.6692395379       -4.3402579643        0.2230194237
 H         -6.4803136695       -2.9758054084        2.2696388875
 H         -5.5883360775       -0.6457893929        2.1133985621
 H         -3.1231742277        1.4229161926       -1.6184990334
 H         -2.9273821474       -1.0359790210        1.0359531770
 H         -0.8992599907       -1.3424771141        2.4173768939
 H          1.0818397092        0.0770318586        2.0394900643
 C          1.4241451418        2.0423572577        0.2695750451
 H          1.5517836066        2.6381010751        1.1856166341
 C          1.3506325217        2.9850285127       -0.9139116971
 C          0.6686374577        4.3128755157       -0.7815778705
 C          2.1621791001        4.2436897633       -0.8840775784
 H          2.6333892838        4.5759787687       -1.7968814905
 H          2.7478801173        4.4337330959        0.0036752391
 H          0.2365941884        4.5605612730        0.1765399598
 H          0.1163098847        4.6980142423       -1.6259368448
 H          1.2770890926        2.4609830962       -1.8602087432
 O          1.8382131576       -0.0086527504       -1.7065832829
