  62
        -98.94510442
 C         -2.2083998802       -0.8249214197       -0.0652628595
 C         -3.1200261500       -0.5807027499        0.9950334708
 C         -3.9005807199        0.6570784702        0.9069255512
 C         -3.6942144401        1.5019148704       -0.1193595186
 C         -4.3804018100        2.8239964605       -0.3315729782
 C         -5.7486167502        2.7153550508       -1.0186639478
 C         -6.8695514800        2.1467163507       -0.1477140777
 H         -7.8081576901        2.3301597808       -0.6743149874
 H         -6.9109157798        2.6969093704        0.7927731624
 C         -6.7487477301        0.6431467406        0.1371423019
 H         -6.0529046803        0.1926977207       -0.5744099683
 H         -7.7184229001        0.1645756507       -0.0168917080
 C         -6.2950617398        0.3007498502        1.5562374117
 H         -6.2104564198       -0.7859022298        1.6357302115
 H         -7.0495357596        0.6333215401        2.2724461720
 C         -4.9442882496        0.9112523700        1.9524908915
 H         -4.6098095894        0.4354384998        2.8774641514
 H         -5.0518876195        1.9813159600        2.1288675618
 H         -5.6397739605        2.1052456810       -1.9183470980
 H         -6.0354126702        3.7216209509       -1.3326527875
 H         -4.4912987998        3.3360971403        0.6247340320
 H         -3.7199425901        3.4169558406       -0.9682325682
 O         -2.7921758003        1.2470865106       -1.1027715489
 C         -2.0397614004        0.0808265705       -1.1126754093
 O         -1.2832171807       -0.0126430693       -2.1001844095
 H          0.6806131394       -1.2727828196       -1.5891972603
 C          0.9563000896       -1.2947392598       -0.5464122904
 C          0.0316384198       -1.7111883900        0.3999026097
 C          0.3977222301       -1.6895113303        1.7422554097
 C          1.6568054203       -1.2632352605        2.1234953895
 C          2.5719891601       -0.8370133103        1.1768348893
 C          2.2097884197       -0.8395804500       -0.1631579506
 N          3.1237061495       -0.3769202899       -1.1301291107
 S          3.7506681897        1.1657027400       -0.8920266605
 O          2.8550587400        1.9939575299       -0.1169867801
 O          4.0973801694        1.6473663403       -2.2116770405
 C          5.2513551899        0.8676829797        0.0210544191
 C          5.4542637003        1.4874533094        1.2384402892
 C          6.6334916104        1.2444867392        1.9259165788
 C          7.5836773702        0.3911575892        1.3863003884
 C          7.3656012199       -0.2217839405        0.1612235683
 C          6.1897487397        0.0178625698       -0.5315191813
 H          5.9819322895       -0.4338940100       -1.4869991514
 H          8.1069165697       -0.8844801404       -0.2553301720
 H          8.4995972003        0.2028301991        1.9238215381
 H          6.8044097507        1.7204001490        2.8781855789
 H          4.6839482504        2.1383109794        1.6208018995
 H          2.7662440993       -0.4553082696       -2.0724512106
 H          3.5503560902       -0.4897899505        1.4666172192
 H          1.9274503505       -1.2562921207        3.1683786794
 H         -0.3255915797       -1.9923571204        2.4860274098
 C         -1.3747265503       -2.0951773898        0.0099043700
 H         -1.8084650402       -2.6741642999        0.8360401800
 C         -1.4444569607       -2.9274737795       -1.2533577702
 C         -0.9733890008       -4.3496128995       -1.2127021306
 C         -2.4356494208       -4.0478246194       -1.3378922202
 H         -2.9229369510       -4.2325463891       -2.2835683201
 H         -3.0686721306       -4.2215675695       -0.4800921601
 H         -0.6131039606       -4.7265512498       -0.2676071708
 H         -0.4540313110       -4.7454195594       -2.0718635508
 H         -1.2655466209       -2.3606224893       -2.1581235601
 O         -3.2722577598       -1.3632154901        1.9697913206
