  62
        -98.93958906
 C          1.3342264912        1.3991549540       -0.2963084009
 C          2.5619649326        1.3689367236        0.4128819130
 C          3.6396296690        0.5360224705       -0.1428615980
 C          3.4184292887       -0.1473113823       -1.2785739848
 C          4.3700735063       -1.0254583209       -2.0528130567
 C          5.2765089637       -1.9685105545       -1.2518855507
 C          4.6454922017       -2.5417617024        0.0254860707
 H          3.5738041487       -2.3321224876        0.0417383194
 H          4.7611068847       -3.6274254407        0.0224096202
 C          5.2927710050       -2.0036541578        1.3039280997
 H          6.3766343446       -1.9925921605        1.1691251026
 H          5.0716399437       -2.6908948585        2.1241375925
 C          4.8283390538       -0.6146414294        1.7398234558
 H          3.7925088823       -0.6636768661        2.0876246364
 H          5.4383256105       -0.3088343404        2.5932849392
 C          4.9063433790        0.4785357988        0.6615978533
 H          4.9840515042        1.4442742764        1.1684819377
 H          5.7805699420        0.3469311752        0.0286847276
 H          6.2005279135       -1.4539456573       -0.9919711004
 H          5.5493806110       -2.7860726506       -1.9214723762
 H          3.7336630168       -1.6110217106       -2.7211941543
 H          4.9911720907       -0.3809545284       -2.6821647975
 O          2.2266280856       -0.0892421017       -1.9332926970
 C          1.1549898444        0.6577942936       -1.4639252066
 O          0.1426612435        0.5713159916       -2.1856468845
 H         -0.5621180055       -0.3576545246        0.1590032945
 C         -0.9556717670        0.1440761069        1.0284245479
 C         -0.6284510099        1.4685428721        1.2737812680
 C         -1.1300759072        2.0785248665        2.4188094337
 C         -1.9381758664        1.3766407617        3.2938941508
 C         -2.2703230183        0.0579492110        3.0404103051
 C         -1.7707675421       -0.5636818086        1.9016782403
 N         -2.0706562076       -1.9063193622        1.6327269723
 S         -2.3192251051       -2.4226496831        0.0601881739
 O         -3.0323163354       -3.6740282772        0.2161533124
 O         -1.0653529913       -2.5003441567       -0.6445394188
 C         -3.4124033060       -1.2021282153       -0.6429754493
 C         -4.7181750025       -1.1995344004       -0.1885485512
 C         -5.5947882822       -0.2396173022       -0.6642791525
 C         -5.1515986918        0.7020905143       -1.5812449448
 C         -3.8412456028        0.6814660353       -2.0304313381
 C         -2.9564338187       -0.2778645817       -1.5591728674
 H         -1.9292873082       -0.3053956939       -1.8894461274
 H         -3.4919949213        1.4092108635       -2.7460509555
 H         -5.8309672987        1.4541622452       -1.9504056635
 H         -6.6160839704       -0.2259117393       -0.3194118988
 H         -5.0260994778       -1.9576394343        0.5131772578
 H         -2.7281696477       -2.3296476490        2.2710536591
 H         -2.8989706927       -0.4933585575        3.7225520507
 H         -2.3152659834        1.8595944157        4.1821990295
 H         -0.8686170079        3.1042776913        2.6292547705
 C          0.2344286959        2.2504080207        0.3085121315
 H          0.7553590840        3.0256255408        0.8885899441
 C         -0.6545449850        2.9324162043       -0.7139738238
 C         -1.2862407465        4.2514759421       -0.3898910252
 C         -0.1767191355        4.1783410187       -1.3948198850
 H         -0.4073996226        4.3118627281       -2.4407866251
 H          0.7940892322        4.5593373797       -1.1123476211
 H         -1.0659199611        4.6961588980        0.5682416537
 H         -2.2883069039        4.4398769433       -0.7423929099
 H         -1.2279303312        2.2334908099       -1.3080368961
 O          2.7552849094        2.0328256587        1.4672946776
