  62
        -98.94118099
 C         -2.1121028589       -0.7625852834       -0.3855570861
 C         -3.2582832837       -0.8264063988        0.4487027417
 C         -3.8582181918        0.4576045361        0.8313028412
 C         -3.2780748512        1.6000744121        0.4212731834
 C         -3.7984581384        2.9785768074        0.7056347948
 C         -4.7433702981        3.4564692252       -0.4058492999
 C         -5.8247283032        2.4407796587       -0.7743364801
 H         -6.4509320633        2.8969413997       -1.5440241394
 H         -5.3516272082        1.5639805089       -1.2222237001
 C         -6.7036639696        1.9951902446        0.4026406412
 H         -7.7475730640        2.0020726618        0.0823554753
 H         -6.6123253416        2.7070549062        1.2237648355
 C         -6.4059418573        0.5860990219        0.9187503258
 H         -7.2162046156        0.2921121650        1.5911466971
 H         -6.4033679241       -0.1172032494        0.0822932186
 C         -5.0905985376        0.4212003376        1.6907645397
 H         -5.0303856159        1.1723511872        2.4811381583
 H         -5.1002378541       -0.5678462431        2.1580040652
 H         -4.1495816351        3.6643837600       -1.2988752149
 H         -5.2108397271        4.3886021765       -0.0836049948
 H         -4.3174336982        2.9743329659        1.6622039250
 H         -2.9480682430        3.6598815053        0.7677672201
 O         -2.1626913984        1.6248306091       -0.3492841256
 C         -1.5544762187        0.4542331565       -0.7790603008
 O         -0.5539684759        0.6492775001       -1.4967198513
 H          1.0360356708       -1.1311883526       -1.3530456058
 C          1.0008754580       -1.6502633910       -0.4082115172
 C         -0.1890089992       -2.2223677613        0.0163106328
 C         -0.2181637211       -2.8541462778        1.2558394797
 C          0.9130845819       -2.9041925250        2.0501632033
 C          2.0926473886       -2.3131214434        1.6325949413
 C          2.1277010572       -1.6742591948        0.4008266046
 N          3.3158183767       -1.0351797267       -0.0182425846
 S          3.9193579679        0.0911303199        1.0929016475
 O          4.7304828253       -0.6159054371        2.0535054068
 O          2.8390247514        0.8792701498        1.6449281058
 C          4.9547439867        1.0990091276        0.0502697774
 C          4.3637173118        2.1135157891       -0.6794439728
 C          5.1558027978        2.8889382693       -1.5112375632
 C          6.5167292159        2.6359433421       -1.6007749357
 C          7.0942810151        1.6131934339       -0.8636480130
 C          6.3081537843        0.8338631893       -0.0294781748
 H          6.7113332780        0.0324353252        0.5671568403
 H          8.1525947610        1.4213207803       -0.9355695261
 H          7.1296462944        3.2424537222       -2.2486068897
 H          4.7078365168        3.6847962572       -2.0844473829
 H          3.3026443079        2.2815467116       -0.5747668571
 H          3.1785241017       -0.5802847049       -0.9123824991
 H          2.9748376270       -2.3135191693        2.2526620368
 H          0.8743043567       -3.3972466434        3.0100420678
 H         -1.1472729717       -3.2847223067        1.6020944806
 C         -1.4609198046       -2.0790879717       -0.7831139949
 H         -2.1595633506       -2.8583564127       -0.4511961905
 C         -1.2595063732       -2.2124787651       -2.2778750350
 C         -0.9589178268       -3.5635761767       -2.8524193359
 C         -2.2934253714       -2.9266241030       -3.0939313092
 H         -2.5167149801       -2.5529368212       -4.0819993364
 H         -3.1521209055       -3.3263466870       -2.5746384874
 H         -0.9108582116       -4.3952852750       -2.1659509534
 H         -0.2641818528       -3.6314109033       -3.6752948304
 H         -0.7842830966       -1.3519558448       -2.7309485145
 O         -3.7579580746       -1.9106822059        0.8512234638
