  62
        -98.94071681
 C          2.0647814994        0.9566939741        0.2955086460
 C          1.9510316864       -0.0292552890       -0.7161518922
 C          2.1684061716       -1.4168027807       -0.2822233914
 C          2.4221446902       -1.6916983145        1.0084864901
 C          2.6288585366       -3.0584891541        1.6035371362
 C          4.0564794954       -3.6011367807        1.4486664553
 C          4.4384493725       -4.0401929975        0.0344373238
 H          5.3731693253       -4.5985887691        0.1144999642
 H          3.6809125150       -4.7245154551       -0.3486351236
 C          4.6379494179       -2.8844469542       -0.9558927354
 H          4.7636117430       -1.9500024130       -0.4044024160
 H          5.5552278816       -3.0470683636       -1.5260441712
 C          3.5023543687       -2.7112411579       -1.9648116252
 H          3.4485950440       -3.5890599887       -2.6125692216
 H          3.7264362624       -1.8433837607       -2.5900482834
 C          2.1244876541       -2.4902029593       -1.3275586881
 H          1.4264598630       -2.1648945139       -2.1038064395
 H          1.7518261149       -3.4206555415       -0.8985323198
 H          4.7575948683       -2.8387391817        1.7955470561
 H          4.1487018523       -4.4647689628        2.1112002304
 H          2.4069006587       -2.9674837737        2.6691004105
 H          1.9187993942       -3.7583955580        1.1614356268
 O          2.5069716384       -0.7199722964        1.9559026437
 C          2.3271572063        0.6108659654        1.6237560712
 O          2.4359872138        1.3942557539        2.5907157353
 H         -0.3563021885        1.0079141649       -0.7559845082
 C         -0.6254837084        1.9078337919       -0.2248873623
 C          0.3551521735        2.7660568395        0.2480100484
 C         -0.0369220042        3.9253159139        0.9083256550
 C         -1.3770120082        4.2056674286        1.1047402392
 C         -2.3506356749        3.3232780618        0.6724872865
 C         -1.9685129985        2.1654702916        0.0052024989
 N         -2.9199920120        1.2374708447       -0.4472980665
 S         -2.5300231523       -0.4032109450       -0.2982640145
 O         -1.7776058923       -0.6245840905        0.9165928574
 O         -1.9276217082       -0.8547207916       -1.5263958492
 C         -4.1639585255       -1.1058646984       -0.1471652026
 C         -4.8756582347       -1.4013627286       -1.2945597255
 C         -6.1591180087       -1.9104799502       -1.1742666865
 C         -6.7071644885       -2.1132730054        0.0836151012
 C         -5.9803366449       -1.8136912110        1.2261728264
 C         -4.6967728918       -1.3029065115        1.1128946056
 H         -4.0900225489       -1.0640532790        1.9718453422
 H         -6.4069346669       -1.9756870771        2.2028798086
 H         -7.7058210491       -2.5101206078        0.1745317990
 H         -6.7256995296       -2.1470435691       -2.0602974277
 H         -4.4033793283       -1.2352556899       -2.2487629928
 H         -3.8531936841        1.4317462243       -0.1099826256
 H         -3.3958368507        3.5252319604        0.8510005229
 H         -1.6664608572        5.1083671495        1.6208222985
 H          0.7179941410        4.5981368077        1.2867731265
 C          1.8199280539        2.4385507183        0.0641461707
 H          2.3752752700        2.9630877662        0.8552317588
 C          2.3070976059        2.9482143697       -1.2782069341
 C          2.7194896364        4.3818360332       -1.4148859053
 C          3.7534132430        3.2975621846       -1.4509437046
 H          4.2292197332        3.0612475707       -2.3905637266
 H          4.3994022282        3.1795432661       -0.5927898230
 H          2.4828604955        4.8972627382       -2.3328447462
 H          2.6746480803        5.0054258540       -0.5351757868
 H          1.8045429685        2.4840036452       -2.1165967376
 O          1.6821596895        0.2067786986       -1.9241765698
