  62
        -98.94782173
 C         -1.0719555703        1.1995275979       -0.0540005385
 C         -1.5587127229        0.1936515853       -0.9211925231
 C         -2.4570209320       -0.7987965469       -0.3174414569
 C         -2.7451296050       -0.7123959295        0.9940937742
 C         -3.6727128302       -1.6357149902        1.7286708478
 C         -5.1133054828       -1.1055342613        1.7182815842
 C         -5.6095694722       -0.6949549822        0.3318594142
 H         -5.0327527673        0.1670369063       -0.0108487009
 H         -6.6452392419       -0.3664174473        0.4417538798
 C         -5.5344261819       -1.8072289615       -0.7233612433
 H         -6.4696320702       -1.8189406201       -1.2870309563
 H         -5.4395153167       -2.7767464508       -0.2329262173
 C         -4.4036420028       -1.6410885737       -1.7398996234
 H         -4.4400361786       -0.6354029097       -2.1658482871
 H         -4.5733469768       -2.3494319567       -2.5550782023
 C         -2.9856741956       -1.8875158493       -1.2090854650
 H         -2.3118629725       -1.9221136016       -2.0705049966
 H         -2.9426629186       -2.8543955906       -0.7022389635
 H         -5.1646913711       -0.2331873464        2.3739358057
 H         -5.7672894804       -1.8774604054        2.1281337590
 H         -3.6321179083       -2.6221112638        1.2699554839
 H         -3.3275436854       -1.7152857824        2.7612254585
 O         -2.2564306718        0.2653352718        1.7981985934
 C         -1.4009019848        1.2387446820        1.3013293440
 O         -1.0163543101        2.0658535989        2.1500137746
 H          0.9862265926        0.0736656105        0.5883527640
 C          1.6594708908        0.9157911730        0.5994938977
 C          1.2486906172        2.1286352962        0.0662579513
 C          2.1254691842        3.2065071808        0.1278315176
 C          3.3683210544        3.0657925318        0.7196116361
 C          3.7718777248        1.8533832374        1.2494935882
 C          2.9034180830        0.7693073070        1.1926043528
 N          3.2621419800       -0.4712971721        1.7321917705
 S          2.5800587874       -1.8943539167        1.2005574128
 O          1.2161930450       -2.0107899296        1.6558152904
 O          3.4914083906       -2.9138669055        1.6768511053
 C          2.6420608501       -1.8178701421       -0.5801362356
 C          1.4738822685       -1.8404717048       -1.3128293789
 C          1.5422606873       -1.7356177236       -2.6926093480
 C          2.7758441123       -1.6195365719       -3.3135501812
 C          3.9437400733       -1.6148373793       -2.5653353419
 C          3.8793123431       -1.7108394719       -1.1851478202
 H          4.7660045470       -1.7139052330       -0.5726038676
 H          4.9012964243       -1.5298090383       -3.0532332224
 H          2.8248911861       -1.5325653741       -4.3874887452
 H          0.6276304011       -1.7201687095       -3.2635653316
 H          0.5283538865       -1.9242548143       -0.7989244881
 H          4.2227405831       -0.5704830593        2.0215347479
 H          4.7400388659        1.7467554786        1.7135320110
 H          4.0356996017        3.9127296891        0.7664958552
 H          1.8300964035        4.1587526161       -0.2816271690
 C         -0.1031150065        2.2273842406       -0.6019311237
 H          0.0293520897        1.9648947494       -1.6634371474
 C         -0.6954760474        3.6211123837       -0.5176882995
 C         -0.4456751215        4.6272235913       -1.6002723553
 C         -1.7968642628        3.9951030346       -1.4630184263
 H         -2.6160291062        4.5920896406       -1.0911705479
 H         -2.0922705014        3.2559461394       -2.1935614658
 H          0.1668222349        4.3245814334       -2.4361582994
 H         -0.3376430456        5.6650675030       -1.3229471530
 H         -0.7734321646        3.9752688368        0.5040927613
 O         -1.2498526908        0.1237268366       -2.1416401261
