  62
        -98.94310636
 C         -1.1599643632       -1.2678700608       -0.0670772560
 C         -1.9211885608       -0.6789766589        0.9769060352
 C         -2.8160456343        0.4207175569        0.5960206693
 C         -2.8387131648        0.8319218902       -0.6841195884
 C         -3.7444723780        1.8979663489       -1.2279731021
 C         -5.0601515359        1.2973719068       -1.7437171387
 C         -5.7311795865        0.3380648244       -0.7605778263
 H         -6.6623322767        0.0006591073       -1.2210447431
 H         -5.0987047431       -0.5436333883       -0.6338229800
 C         -6.0331001744        0.9464440736        0.6161326993
 H         -7.0458448764        0.6621857242        0.9095844000
 H         -6.0087533888        2.0349947330        0.5533440489
 C         -5.0979015928        0.4815215667        1.7341075115
 H         -5.0485506199       -0.6101973192        1.7405145865
 H         -5.5285595526        0.7945776707        2.6889098076
 C         -3.6666141351        1.0301000709        1.6747960217
 H         -3.6999812964        2.1171136021        1.5760130153
 H         -3.1762654855        0.7806257072        2.6201023072
 H         -5.7436228074        2.1148386235       -1.9805717571
 H         -4.8529917084        0.7506286007       -2.6666891753
 H         -3.9491781435        2.6289197647       -0.4480763391
 H         -3.2379414833        2.3947479299       -2.0573643735
 O         -2.0592232949        0.2816450119       -1.6466581210
 C         -1.2121445312       -0.7851686113       -1.3748973690
 O         -0.5811404992       -1.1811355948       -2.3736996516
 H          1.3559563084       -1.0417924591       -1.2966398522
 C          1.8253141294       -1.2650183594       -0.3497801558
 C          1.1264538448       -2.0010246662        0.5978359597
 C          1.7444763759       -2.2746941399        1.8117837196
 C          3.0287423385       -1.8243634298        2.0683110557
 C          3.7198703309       -1.0877326029        1.1226295543
 C          3.1080113252       -0.8085044962       -0.0918877571
 N          3.7848018032       -0.0096871679       -1.0460953463
 S          3.9424392348        1.5893567469       -0.5612980284
 O          4.1890688686        2.3504190093       -1.7644581436
 O          4.9573029927        1.6637000993        0.4583539001
 C          2.3511076535        2.0003169039        0.1331431155
 C          1.3325524554        2.3698992321       -0.7219445264
 C          0.0735386762        2.6131917960       -0.1986320510
 C         -0.1483107031        2.4651709393        1.1615980883
 C          0.8831274040        2.0869852784        2.0061902993
 C          2.1470945874        1.8524816624        1.4902645762
 H          2.9764533618        1.5628646711        2.1143213215
 H          0.7019666370        1.9668283429        3.0619889475
 H         -1.1323426292        2.6410504506        1.5655681037
 H         -0.7323895079        2.9057297104       -0.8526460632
 H          1.5407556727        2.4714864801       -1.7754802971
 H          3.3308747946       -0.0306252241       -1.9498268612
 H          4.7105371415       -0.7068404822        1.3109880649
 H          3.4945077483       -2.0440060687        3.0167403269
 H          1.2047931025       -2.8299567650        2.5646760923
 C         -0.2841288057       -2.4490637855        0.3180204101
 H         -0.7092098681       -2.8083111163        1.2682340201
 C         -0.3648349397       -3.5994522675       -0.6772896848
 C          0.7810087273       -4.0524705542       -1.5270914008
 C          0.3272566229       -4.8962019163       -0.3762874288
 H         -0.1901257186       -5.8213388557       -0.5800490585
 H          0.9615130790       -4.9265237675        0.4969404339
 H          1.7243372460       -3.5370656360       -1.4392857084
 H          0.5580983659       -4.3768474414       -2.5322936445
 H         -1.3482958940       -3.6704037033       -1.1315172332
 O         -1.8631419058       -1.0690492165        2.1724004973
