  62
        -98.94475390
 C          1.6258571392        1.4424654465       -0.2449477949
 C          2.7540789241        0.8797195804        0.3896830137
 C          3.2390715393       -0.4043023511       -0.1431158744
 C          2.5953064662       -0.9758260042       -1.1783796385
 C          2.8628495528       -2.2631236162       -1.9301057096
 C          3.8052676218       -3.3194848471       -1.3603006727
 C          3.2996362473       -4.0067331787       -0.0922373931
 H          2.4396412304       -4.6291682493       -0.3526521114
 H          4.0891913868       -4.6652622531        0.2775757428
 C          2.8608032492       -3.0768031983        1.0367883627
 H          1.9914293106       -2.4935966831        0.7219147483
 H          2.5289873267       -3.7009179176        1.8720783493
 C          3.9423204225       -2.1346892172        1.5634602350
 H          4.8193722360       -2.7133501466        1.8614906768
 H          3.5429427826       -1.6471054013        2.4572962654
 C          4.3895202227       -1.0275703403        0.5933789825
 H          4.8458177389       -0.2271791143        1.1836416378
 H          5.1419011300       -1.3906739021       -0.1026143942
 H          3.9123836540       -4.0885751997       -2.1302874855
 H          4.7924743481       -2.8972345885       -1.1970608859
 H          1.8782884400       -2.7146443204       -2.0904074208
 H          3.2329114074       -1.9634168148       -2.9171228711
 O          1.5299234538       -0.3756586380       -1.7821528613
 C          0.9939768236        0.8070969133       -1.3111719586
 O         -0.0212383868        1.1929850419       -1.9241635686
 H          0.0763803306        0.5056130519        1.4967904417
 C         -0.7143626058        1.2175709979        1.3098608945
 C         -0.4227931010        2.4367325207        0.7112565608
 C         -1.4630678117        3.3338166277        0.5027290583
 C         -2.7600176789        3.0008124769        0.8557150623
 C         -3.0522716502        1.7609958719        1.3943997949
 C         -2.0161735508        0.8619714034        1.6168013451
 N         -2.2490345726       -0.4363146116        2.1219738105
 S         -1.9430813150       -1.6907511839        1.0467942970
 O         -2.3172240158       -2.8957693238        1.7568134550
 O         -0.5839649106       -1.6221723380        0.5792435521
 C         -3.1059934390       -1.4012497970       -0.2749424726
 C         -4.3263170393       -2.0488241333       -0.2245385987
 C         -5.2765625984       -1.7696608289       -1.1925865116
 C         -4.9960623719       -0.8410707565       -2.1841351408
 C         -3.7688215509       -0.1978591856       -2.2176376489
 C         -2.8094916130       -0.4750784148       -1.2545637936
 H         -1.8461032106        0.0117676042       -1.2697003945
 H         -3.5417383257        0.5246081032       -2.9851410698
 H         -5.7365850095       -0.6176917681       -2.9359175074
 H         -6.2302885410       -2.2718109079       -1.1692122139
 H         -4.4967414239       -2.7638832534        0.5642900714
 H         -3.1763034551       -0.5598482447        2.5068408235
 H         -4.0680619710        1.4873881049        1.6374336906
 H         -3.5572243459        3.7082597782        0.6864247090
 H         -1.2590716872        4.2926421709        0.0546425302
 C          1.0076013100        2.7106271157        0.3135925720
 H          1.5847254299        2.9467443825        1.2204492199
 C          1.1479274517        3.8555596733       -0.6680723382
 C          1.2883668061        5.2647595094       -0.1767764832
 C          2.4669924716        4.5584603498       -0.7739849810
 H          2.8132273075        4.8611638191       -1.7507419310
 H          3.2563761332        4.2278722597       -0.1147223542
 H          1.2842119656        5.4254617672        0.8907245263
 H          0.8272246116        6.0576987501       -0.7460655220
 H          0.5975609474        3.6827586426       -1.5861705651
 O          3.3330079855        1.4250365557        1.3700967548
