  62
        -98.93535213
 C         -2.1915980816       -1.1256531097       -0.0012550499
 C         -2.8689292213       -0.4377462818        1.0360768464
 C         -3.7047974047        0.7171406018        0.6580934122
 C         -3.7666953282        1.0687375248       -0.6392819616
 C         -4.5736429185        2.1720152564       -1.2701107191
 C         -6.0666337629        1.8229855842       -1.3873804659
 C         -6.6720787577        1.1583756746       -0.1536622941
 H         -7.6925092389        0.8583553446       -0.4060594653
 H         -6.1136307841        0.2484685255        0.0734672205
 C         -6.7389851770        2.0372187905        1.0929585083
 H         -7.2625580624        1.4668933082        1.8644020745
 H         -7.3360947082        2.9251004045        0.8734726817
 C         -5.3941046975        2.4874067101        1.6668237879
 H         -5.5856291678        2.8956325661        2.6635155900
 H         -4.9679223420        3.2964719161        1.0796256203
 C         -4.3700927905        1.3707373034        1.8451286480
 H         -3.5502558431        1.7460076449        2.4699638237
 H         -4.8225688831        0.5569549915        2.4231115680
 H         -6.6165503126        2.7366055291       -1.6189935735
 H         -6.1861024507        1.1347854972       -2.2277258663
 H         -4.4322688472        3.0972249691       -0.7190181778
 H         -4.1707375154        2.3200165180       -2.2746547339
 O         -3.0858024134        0.3895947535       -1.6044428837
 C         -2.2812961253       -0.7034056204       -1.3268411996
 O         -1.7241754736       -1.1803474408       -2.3347691189
 O         -2.7914423972       -0.7851323585        2.2455096480
 C         -1.3457720907       -2.3183899086        0.4117957348
 C          0.0803870136       -1.8915391062        0.6475011263
 C          0.7129443459       -2.1296719363        1.8613063561
 C          2.0116732439       -1.6999844181        2.0743084843
 C          2.7042468810       -1.0278828992        1.0832776731
 C          2.0786989855       -0.7806377909       -0.1319550777
 C          0.7786188231       -1.2131992307       -0.3430082719
 H          0.2945950840       -1.0151582630       -1.2887242519
 N          2.7753987635       -0.0924828611       -1.1465153068
 S          3.3084501779        1.4553822451       -0.7567227802
 O          2.4630942739        2.0668359541        0.2441380463
 O          3.4215442686        2.1539623802       -2.0185278721
 C          4.9395708469        1.1817744877       -0.0971593331
 C          5.2502856506        1.6147684146        1.1769292934
 C          6.5281549396        1.3923168454        1.6665564347
 C          7.4667183538        0.7451039631        0.8775182331
 C          7.1391014154        0.3186971732       -0.4011648360
 C          5.8641211595        0.5389038490       -0.8972183849
 H          5.5685795983        0.2279888880       -1.8853381849
 H          7.8716835207       -0.1841718958       -1.0116115251
 H          8.4596388644        0.5721418466        1.2614749298
 H          6.7845743249        1.7232332377        2.6601306815
 H          4.4850160481        2.1073651010        1.7553447858
 H          2.2650221833       -0.0657018782       -2.0189084384
 H          3.7148250813       -0.6891597575        1.2433963014
 H          2.4896120420       -1.8891443285        3.0232248063
 H          0.1725642698       -2.6375256354        2.6466069013
 H         -1.7613479608       -2.6277688897        1.3837287125
 C         -1.4745990278       -3.5026495848       -0.5367094107
 C         -0.3529678398       -4.0208627694       -1.3816594786
 C         -0.8152792593       -4.8060335832       -0.1935461915
 H         -1.3620993893       -5.7224632887       -0.3548703130
 H         -0.1720312904       -4.8194266569        0.6734489760
 H         -0.5989750611       -4.3758897568       -2.3708945019
 H          0.6041854929       -3.5271981911       -1.3245607044
 H         -2.4656704906       -3.5605166211       -0.9754882597
