  62
        -98.93536048
 C          2.2121457372        1.0132633065       -0.0170069096
 C          2.8997119034        0.4572272052        1.0913237543
 C          3.7546443273       -0.7132537907        0.8326740345
 C          3.8184446554       -1.2065351059       -0.4157616905
 C          4.6613304316       -2.3488525594       -0.9115937969
 C          6.0015118228       -1.8356833818       -1.4656298260
 C          7.1134341604       -1.6861737965       -0.4280028706
 H          7.4468704111       -2.6777196087       -0.1148952454
 H          7.9559483299       -1.1982949588       -0.9234605766
 C          6.7418673122       -0.8790438635        0.8186070762
 H          7.6678904757       -0.5319216716        1.2808688772
 H          6.1740066335        0.0066466268        0.5279335326
 C          5.9463420733       -1.6928623098        1.8501587428
 H          5.9934118798       -2.7488882702        1.5850722555
 H          6.4203893753       -1.5982492625        2.8292624324
 C          4.4807925253       -1.2698685547        2.0268086886
 H          3.9077745722       -2.1177385535        2.4175023215
 H          4.4178677950       -0.4791707219        2.7811414544
 H          6.3489434181       -2.5267937659       -2.2362650040
 H          5.8165926232       -0.8731625679       -1.9495667278
 H          4.8143686765       -3.0838890823       -0.1269880669
 H          4.1033024201       -2.8158006640       -1.7261025062
 O          3.1224884663       -0.6611261709       -1.4493010114
 C          2.3065695238        0.4491077459       -1.2888927176
 O          1.7434464416        0.8068990174       -2.3412694130
 O          2.8140293860        0.9349768174        2.2547119527
 C          1.3569253604        2.2385744013        0.2589648550
 C         -0.0713225267        1.8405828307        0.5299212355
 C         -0.7128902634        2.2181512704        1.7031009580
 C         -2.0170717214        1.8248310785        1.9497635301
 C         -2.7067943379        1.0520425732        1.0329299557
 C         -2.0718251833        0.6633945509       -0.1396494768
 C         -0.7650740424        1.0582833111       -0.3838721718
 H         -0.2740837316        0.7517063284       -1.2963135904
 N         -2.7650247397       -0.1202859607       -1.0820838592
 S         -3.4291247267       -1.5640134774       -0.5328530136
 O         -2.6962206069       -2.0847783082        0.5989420120
 O         -3.5082819693       -2.4179702495       -1.6978671040
 C         -5.0771598626       -1.1049812805       -0.0385660912
 C         -5.8995263938       -0.5239587012       -0.9841368710
 C         -7.1857616698       -0.1601511740       -0.6190303489
 C         -7.6261868658       -0.3848565227        0.6769826060
 C         -6.7896674857       -0.9728977749        1.6133596151
 C         -5.5011292793       -1.3381822176        1.2549821333
 H         -4.8130402124       -1.7928821256        1.9498705401
 H         -7.1339228455       -1.1473294986        2.6200680185
 H         -8.6276664164       -0.1004255412        0.9588426437
 H         -7.8392215089        0.2968141898       -1.3445954291
 H         -5.5188303857       -0.3716644504       -1.9802838155
 H         -2.2312986538       -0.2831340437       -1.9247957969
 H         -3.7219985190        0.7420644598        1.2193703673
 H         -2.5021606134        2.1227444778        2.8666189192
 H         -0.1759194595        2.8080146550        2.4313531336
 H          1.7649483831        2.6533998143        1.1941065600
 C          1.4902957626        3.3144201040       -0.8108310761
 C          0.3784163040        3.7277246510       -1.7236335298
 C          0.8158870305        4.6411874586       -0.6208985924
 H          1.3583986806        5.5397130000       -0.8723868616
 H          0.1588786700        4.7424966153        0.2298049585
 H          0.6374191826        3.9757950791       -2.7417213654
 H         -0.5756936739        3.2342968225       -1.6277683514
 H          2.4878463937        3.3340143687       -1.2384194934
