  62
        -98.94309818
 C         -2.5624363794       -0.1677887888        0.5261514961
 C         -2.1913545669        0.3670466740       -0.7332104505
 C         -1.9672884938        1.8208034928       -0.7732647478
 C         -2.0790560130        2.5403358199        0.3566250992
 C         -1.8501280835        4.0199597954        0.4653597434
 C         -0.3962784064        4.3415531576        0.8347066051
 C          0.6392142312        3.6347288694       -0.0404432258
 H          0.6130953561        2.5598570498        0.1573798399
 H          1.6242898868        3.9880144575        0.2744773189
 C          0.4678646479        3.8708780725       -1.5475568225
 H          1.4497908203        4.0714096956       -1.9809747883
 H         -0.1504612221        4.7535134089       -1.7189646976
 C         -0.1180441062        2.6776508754       -2.3053472555
 H          0.4186387437        1.7703522122       -2.0181431935
 H          0.0438280274        2.8379423786       -3.3750046096
 C         -1.6182403918        2.4296888061       -2.1019862647
 H         -1.9397500216        1.7053887841       -2.8562709804
 H         -2.1724041325        3.3586072321       -2.2574261966
 H         -0.2270201240        4.0416059537        1.8717834529
 H         -0.2561816014        5.4223359931        0.7649486398
 H         -2.5070207684        4.4097850312        1.2453610895
 H         -2.1075579915        4.4902327126       -0.4818576602
 O         -2.3943311734        1.9868018169        1.5570820618
 C         -2.6197860577        0.6256487043        1.6731783768
 O         -2.8666085702        0.2474475233        2.8378965513
 O         -2.0706464975       -0.3193826575       -1.7806113615
 C         -2.7808590864       -1.6592268948        0.7274803657
 C         -1.6435798364       -2.4132210074        0.0824393067
 C         -1.8041749716       -3.4449149192       -0.8321031284
 C         -0.6963786655       -4.0541897259       -1.3966932023
 C          0.5833917614       -3.6394887264       -1.0788923009
 C          0.7536781712       -2.6133894848       -0.1557788062
 C         -0.3545546658       -2.0307645924        0.4329103733
 H         -0.2133244634       -1.2324503916        1.1491419064
 N          2.0371403106       -2.1602936212        0.2046520313
 S          2.2030919493       -0.4964543200        0.4633826719
 O          1.8405463425       -0.2019407845        1.8290743551
 O          1.5065676643        0.2421028989       -0.5621451532
 C          3.9659187607       -0.3100413825        0.2683402451
 C          4.7928068515       -0.7863392571        1.2685169265
 C          6.1649782638       -0.6699332796        1.1147769730
 C          6.6846248864       -0.0817616446       -0.0292193168
 C          5.8422709452        0.3939730939       -1.0225192918
 C          4.4684396277        0.2785796247       -0.8761116651
 H          3.7734674275        0.6373986773       -1.6183825638
 H          6.2482401602        0.8536000358       -1.9091395141
 H          7.7529947513        0.0085440251       -0.1458483335
 H          6.8228345188       -1.0363389365        1.8861831521
 H          4.3423096905       -1.2256466996        2.1432754970
 H          2.7562981029       -2.5048831798       -0.4176464431
 H          1.4436854337       -4.0980177254       -1.5426640073
 H         -0.8336695225       -4.8504583424       -2.1126717037
 H         -2.7940938693       -3.7532297538       -1.1257396948
 H         -2.6997599398       -1.8077124939        1.8180895834
 C         -4.1586905573       -2.1627903804        0.3249298963
 C         -5.3389551087       -1.2392210978        0.2908008556
 C         -4.7944810747       -1.8063927048       -0.9839004528
 H         -5.3734177319       -2.5629902829       -1.4932988950
 H         -4.2416518300       -1.1575262316       -1.6438342311
 H         -6.2862675415       -1.6052268195        0.6574947878
 H         -5.1612559340       -0.1948334181        0.5042930555
 H         -4.3475373268       -3.1635376661        0.7016614226
