  62
        -98.94538420
 C          2.6484771394        1.0663241602        0.2856748102
 C          2.5723887997        0.3075910604       -0.9078249000
 C          3.1910787200       -1.0252876995       -0.8586396902
 C          3.7812350000       -1.4384998296        0.2775882198
 C          4.3907078202       -2.7941516995        0.4850382796
 C          3.3626903804       -3.7802041098        1.0576063993
 C          2.0324764604       -3.7958092399        0.3032400092
 H          1.5300523902       -2.8333621500        0.4324717193
 H          1.3966846005       -4.5483342501        0.7755773890
 C          2.1562126406       -4.0998223396       -1.1962931209
 H          1.3835743208       -4.8213373697       -1.4699982811
 H          3.1224238408       -4.5624507194       -1.4019918909
 C          1.9703281505       -2.8845693795       -2.1071068707
 H          1.0431088103       -2.3672600097       -1.8424816406
 H          1.8590386407       -3.2445013793       -3.1335659107
 C          3.1175607603       -1.8656967292       -2.1018470903
 H          2.9427663602       -1.1672119891       -2.9253182102
 H          4.0651012904       -2.3786213790       -2.2789859504
 H          3.1626933202       -3.5087800900        2.0968493293
 H          3.7987363606       -4.7805959797        1.0457552092
 H          4.7749287904       -3.1634200492       -0.4635120104
 H          5.2176459201       -2.6959621094        1.1902349697
 O          3.8411775297       -0.6775232398        1.4008795500
 C          3.2576611094        0.5789867401        1.4407548501
 O          3.3427295592        1.1512108299        2.5472219803
 H          0.3651575494        0.7209902595        1.5442201099
 C         -0.1747710807        1.3100198995        0.8111428100
 C          0.5121524992        2.2784297098        0.0883217502
 C         -0.1905756308        3.0277000599       -0.8447907997
 C         -1.5385652808        2.7929677696       -1.0584214699
 C         -2.2133065306        1.8179746693       -0.3473805501
 C         -1.5217903006        1.0701526393        0.5971561398
 N         -2.2016425605        0.0762824890        1.3309987295
 S         -2.9060681701       -1.1612735609        0.4318793292
 O         -2.9784224900       -2.2905796711        1.3341754990
 O         -2.2061300800       -1.3765074406       -0.8132706408
 C         -4.5521988602       -0.5604430112        0.1197390692
 C         -5.3482292504       -0.2546122916        1.2063376492
 C         -6.6319593404        0.2167352082        0.9830518191
 C         -7.0957996804        0.3705534384       -0.3151660609
 C         -6.2853154902        0.0552701687       -1.3950355609
 C         -4.9992280201       -0.4153338511       -1.1787180708
 H         -4.3297697500       -0.6666192708       -1.9859848608
 H         -6.6475650901        0.1752345389       -2.4033905809
 H         -8.0951433104        0.7382796282       -0.4864060709
 H         -7.2652563506        0.4628262579        1.8200462491
 H         -4.9492811104       -0.3922722717        2.1974249192
 H         -1.6377265504       -0.3239134910        2.0680539195
 H         -3.2605475606        1.6278318392       -0.5172687703
 H         -2.0704034508        3.3765277097       -1.7942419898
 H          0.3195259291        3.7855729501       -1.4160145795
 C          1.9903300392        2.4338045301        0.3549583004
 H          2.1163232990        2.7801723299        1.3912647305
 C          2.6819244791        3.4088042104       -0.5732886094
 C          2.6582918987        4.8765465803       -0.2727741791
 C          3.9259398289        4.0965116705       -0.1001294691
 H          4.7291052889        4.2507013808       -0.8048585090
 H          4.2624651788        3.8769896804        0.9029503309
 H          2.1358435186        5.1958920400        0.6162321809
 H          2.5945170087        5.5710723905       -1.0966297389
 H          2.6475807592        3.0937728306       -1.6095633694
 O          2.0171255297        0.7185887205       -1.9592241999
