  62
        -98.93644471
 C         -1.2912386168       -0.8646580374        0.4009056237
 C         -1.9032580328       -0.6242853677       -0.8509109428
 C         -2.8356175244        0.5179561891       -0.9105638020
 C         -3.0288362335        1.2654511864        0.1900573599
 C         -3.9613536268        2.4340790813        0.3515229013
 C         -5.3171151430        1.9729728587        0.9125997986
 C         -6.3295457652        1.5233225266       -0.1399285063
 H         -7.1863798818        1.1030957511        0.3917015117
 H         -6.6838605471        2.3959948799       -0.6927301615
 C         -5.8157929535        0.4858122520       -1.1417906521
 H         -5.2305320682       -0.2729738270       -0.6192184400
 H         -6.6819365651       -0.0171606820       -1.5761756594
 C         -4.9808933316        1.1015592079       -2.2745948619
 H         -5.3641386801        0.7535168152       -3.2360978752
 H         -5.1108718869        2.1837698334       -2.2649238393
 C         -3.4831068496        0.7612538375       -2.2464528308
 H         -3.3083648400       -0.1611752996       -2.8095397939
 H         -2.9285765934        1.5505307763       -2.7659559042
 H         -5.1290955403        1.1569846702        1.6150224258
 H         -5.7604558518        2.7950173607        1.4781741659
 H         -3.4963877630        3.1061771551        1.0758782880
 H         -4.0843598041        2.9635342523       -0.5886529349
 O         -2.4030285296        1.0085445973        1.3715838035
 C         -1.5298061015       -0.0558483365        1.5117020354
 O         -1.0330140568       -0.1715875876        2.6483550573
 O         -1.6835569830       -1.3234030220       -1.8748827043
 C         -0.3161223680       -2.0115250731        0.5685801588
 C          0.8890638827       -1.8609467172       -0.3297768536
 C          1.6580216679       -2.9535534275       -0.7165734296
 C          2.7993316185       -2.7823790363       -1.4807470032
 C          3.2013696430       -1.5202114820       -1.8814518277
 C          2.4349107396       -0.4262606883       -1.5106828777
 C          1.2998481070       -0.5984481946       -0.7331898892
 H          0.7215249300        0.2683001915       -0.4365285993
 N          2.8612335589        0.8752690920       -1.8848942737
 S          4.0443686407        1.4834541441       -0.8617257786
 O          4.2004800788        2.8772788710       -1.2100982010
 O          5.2158431454        0.6550557445       -0.9811393795
 C          3.3303658828        1.3216788348        0.7639179215
 C          3.4745788901        0.1283019763        1.4427080715
 C          2.8010495151       -0.0441999907        2.6412039043
 C          1.9941889086        0.9689186611        3.1349721510
 C          1.8644073306        2.1633530241        2.4432387486
 C          2.5310186572        2.3409534523        1.2418786822
 H          2.4507164264        3.2523917127        0.6700842475
 H          1.2317644905        2.9464474890        2.8300294856
 H          1.4484539322        0.8217851651        4.0530395569
 H          2.8945581537       -0.9731333357        3.1802541636
 H          4.1057576813       -0.6385757805        1.0234705306
 H          2.0986501610        1.5384265191       -1.9176216420
 H          4.0961518543       -1.3632128953       -2.4610051145
 H          3.3845955514       -3.6427225354       -1.7670817788
 H          1.3620932274       -3.9445422547       -0.4124312778
 H          0.0397837931       -1.9524530139        1.6085891460
 C         -1.0244931663       -3.3389356431        0.3720013828
 C         -0.6641758047       -4.5300073592        1.2068346680
 C         -1.9628736896       -3.8194822588        1.4369412812
 H         -2.8805877881       -4.3031155526        1.1376185281
 H         -2.0610465649       -3.2067068946        2.3216271992
 H         -0.6917071619       -5.5073566548        0.7487301948
 H          0.1113906038       -4.4093877082        1.9481198639
 H         -1.3129890211       -3.5047944285       -0.6594767894
