  62
        -98.94476694
 C          2.0439555590        0.9926282314        0.4435595278
 C          2.1885856168        0.2578537969       -0.7586847875
 C          2.8351591658       -1.0566388029       -0.6306378819
 C          3.1648301533       -1.5153957792        0.5898154848
 C          3.8638904433       -2.8155504242        0.8595443252
 C          5.3880451232       -2.6328672623        0.8849331022
 C          5.9371487809       -1.8607704442       -0.3147218563
 H          5.5708154675       -0.8325259822       -0.2737103624
 H          7.0229541317       -1.8205409325       -0.2053542241
 C          5.5822733542       -2.4705175506       -1.6780381373
 H          6.4767878622       -2.4719392864       -2.3042756229
 H          5.2741582541       -3.5088064266       -1.5504540085
 C          4.4999794861       -1.7128832967       -2.4494592937
 H          4.4829576922       -2.0939223825       -3.4738650528
 H          4.7598175427       -0.6525650651       -2.4982718530
 C          3.0749713496       -1.8340121794       -1.8940863496
 H          2.3891481006       -1.4140664535       -2.6358000284
 H          2.8206976431       -2.8865690803       -1.7524021360
 H          5.8522629613       -3.6196749348        0.9295337638
 H          5.6556215258       -2.0895806872        1.7941836817
 H          3.5847258538       -3.5362212156        0.0932083988
 H          3.5332084985       -3.1880998982        1.8307724542
 O          2.9328841082       -0.8156146182        1.7307440797
 C          2.3723271242        0.4492194664        1.6852406742
 O          2.2112204077        0.9793618809        2.8055492346
 O          1.8073661977        0.6739670650       -1.8828305604
 C          1.4012016411        2.3716138252        0.4345951620
 C         -0.0575906268        2.1959153521        0.0887677798
 C         -0.6564412150        2.6994531212       -1.0571776007
 C         -1.9871846403        2.4264045215       -1.3276214368
 C         -2.7443431096        1.6525107469       -0.4669218752
 C         -2.1549780902        1.1523153908        0.6871418368
 C         -0.8271112780        1.4306817830        0.9579839286
 H         -0.3654172252        1.0299678720        1.8530498354
 N         -2.9198489829        0.3406192677        1.5624669595
 S         -3.1589955219       -1.2242093801        0.9782138101
 O         -3.5075201567       -2.0198092409        2.1359123902
 O         -2.0211699086       -1.6791397654        0.2088314849
 C         -4.5849067335       -1.0516643510       -0.0712969029
 C         -5.7940190231       -0.7405620448        0.5202250801
 C         -6.9116183921       -0.5879222784       -0.2845399602
 C         -6.8011638678       -0.7490377920       -1.6579440415
 C         -5.5801767870       -1.0629452521       -2.2353925094
 C         -4.4575788871       -1.2160682353       -1.4363137259
 H         -3.4856768563       -1.4530333545       -1.8390877216
 H         -5.4959290387       -1.1869053111       -3.3030779624
 H         -7.6720538054       -0.6291078663       -2.2827791964
 H         -7.8628400363       -0.3439071163        0.1601860275
 H         -5.8329737857       -0.6303656782        1.5910426883
 H         -2.5000583465        0.2700036673        2.4803291808
 H         -3.7793009073        1.4362660405       -0.6759630737
 H         -2.4390867803        2.8185941251       -2.2257164200
 H         -0.0770626131        3.2906075999       -1.7466932002
 H          1.4604458571        2.7380681188        1.4694680760
 C          2.1451689247        3.3304423972       -0.4679257461
 C          1.9893515249        4.8070430162       -0.2669823271
 C          3.2763343369        4.1325141114        0.0990301817
 H          4.1449969157        4.3053408529       -0.5183437685
 H          3.5060869728        3.9997572730        1.1465349612
 H          1.9758401713        5.4473554964       -1.1355912088
 H          1.3446275434        5.1358670285        0.5339714928
 H          2.2563199870        2.9591346437       -1.4790946297
