  62
        -98.94031671
 C         -2.3591591389        0.0421495029       -0.1958922633
 C         -3.4411622732        0.2259306816       -1.0893086933
 C         -4.7253863551       -0.3500945735       -0.6706471370
 C         -4.7975946140       -1.0129954826        0.4984342736
 C         -6.0539683474       -1.6000911109        1.0723214836
 C         -6.7753347673       -0.5922018812        1.9781984230
 C         -6.9594647329        0.7871486721        1.3453698666
 H         -7.5050547413        1.4037362932        2.0629853712
 H         -5.9792841704        1.2488690863        1.2054884923
 C         -7.7097573879        0.7766232615        0.0061951470
 H         -8.2534187768       -0.1619958476       -0.1066754006
 H         -8.4485113831        1.5807811728        0.0123078944
 C         -6.8214205064        0.9975833309       -1.2193870110
 H         -7.4688290556        1.1889381822       -2.0793166075
 H         -6.2050192932        1.8876732802       -1.0698314057
 C         -5.8987430979       -0.1695125208       -1.5923997413
 H         -5.4742421809        0.0446516222       -2.5776796363
 H         -6.4803503789       -1.0909492673       -1.6617222575
 H         -7.7498425274       -1.0048310284        2.2454221703
 H         -6.1932613110       -0.4728255295        2.8948709339
 H         -5.7848160410       -2.4776632396        1.6623509517
 H         -6.7091571184       -1.9072241321        0.2594840887
 O         -3.7314378401       -1.1856528951        1.3214966181
 C         -2.4877286939       -0.6608589000        1.0018288116
 O         -1.6010672511       -0.8880853041        1.8465300177
 O         -3.3354422330        0.8373012141       -2.1872073924
 C         -1.0073154813        0.6269238261       -0.5551688450
 C          0.0496444156       -0.4468187361       -0.6395448856
 C         -0.2463606277       -1.6503699465       -1.2751745290
 C          0.7085148779       -2.6410835081       -1.3940008877
 C          1.9887859794       -2.4455623584       -0.9061068425
 C          2.2974727052       -1.2461469352       -0.2774379070
 C          1.3291433728       -0.2604235518       -0.1413475285
 H          1.6000380259        0.6574172620        0.3531324862
 N          3.5836754609       -1.0108047780        0.2346424648
 S          4.2122375635        0.5517249740        0.0942440795
 O          3.7981154765        1.3279697347        1.2356193019
 O          3.8880683512        1.0982797999       -1.2037908626
 C          5.9611397654        0.2138390155        0.1966070076
 C          6.5629816733        0.1485572189        1.4389281161
 C          7.9161582785       -0.1419322234        1.5129179511
 C          8.6405676778       -0.3624723392        0.3509222180
 C          8.0232574952       -0.2920601226       -0.8890368927
 C          6.6704247611       -0.0024940547       -0.9702109339
 H          6.1514041804        0.0739008740       -1.9122219510
 H          8.5897538235       -0.4601457234       -1.7907851958
 H          9.6936623903       -0.5872893558        0.4117587610
 H          8.4003243659       -0.1939595353        2.4747282264
 H          5.9615415489        0.3356078156        2.3133042782
 H          4.2543414648       -1.7126006533       -0.0472968235
 H          2.7378093889       -3.2163607974       -1.0062478451
 H          0.4582083515       -3.5709413315       -1.8825382511
 H         -1.2410407852       -1.7994516918       -1.6733909652
 H         -1.1309967151        1.0537846074       -1.5629865040
 C         -0.6481684140        1.7454043463        0.4010797569
 C          0.2124232475        2.8851835076       -0.0526617934
 C         -1.2487904294        3.1028873929        0.1976003628
 H         -1.5452573188        3.6717348788        1.0660249285
 H         -1.8987090487        3.2336319687       -0.6554526824
 H          0.9275281909        3.2981863704        0.6437098675
 H          0.5608108691        2.8727815618       -1.0748985180
 H         -0.5325100360        1.3963889179        1.4218866387
