  62
        -98.93872438
 C         -1.9068347542       -0.8506883277       -0.3504091125
 C         -3.0144681494       -1.1374474887        0.4829761940
 C         -4.3074106159       -0.5252580452        0.1220714344
 C         -4.3622816425        0.2769700753       -0.9573547968
 C         -5.5431220603        1.0414684929       -1.4945039908
 C         -5.8700398177        2.2914790255       -0.6623911702
 C         -5.8550876429        2.0782503061        0.8488467671
 H         -4.8695523494        1.7184161233        1.1500378372
 H         -6.0021194732        3.0525010147        1.3225867219
 C         -6.9279159863        1.1321242887        1.3829880341
 H         -6.8650051312        1.1550795570        2.4739587786
 H         -7.9127037483        1.5105420704        1.0999929281
 C         -6.8180522313       -0.3265536283        0.9330337120
 H         -7.1917085171       -0.4556820031       -0.0792385406
 H         -7.4715153498       -0.9167686983        1.5820741604
 C         -5.4214843997       -0.9266991502        1.0585949001
 H         -5.5009342252       -2.0167514194        0.9683898277
 H         -5.0444941917       -0.7496774375        2.0722957861
 H         -6.8485378082        2.6640550266       -0.9703878487
 H         -5.1276771937        3.0582512210       -0.8978774359
 H         -5.2771455327        1.3574577940       -2.5057499437
 H         -6.4084412293        0.3894717962       -1.5686837787
 O         -3.2654802308        0.5365270833       -1.7242331711
 C         -2.0229370062       -0.0072452892       -1.4543029132
 O         -1.1360665603        0.3283244476       -2.2633313659
 O         -2.9327239372       -1.8805772041        1.4976372782
 C         -0.5654704539       -1.4669053054        0.0104621662
 C          0.3505080190       -0.3790534608        0.5124520956
 C          0.3008765875       -0.0013754822        1.8510318014
 C          1.1129713747        1.0092467906        2.3321513737
 C          1.9888548453        1.6682558899        1.4869256609
 C          2.0375829670        1.3045287726        0.1482972621
 C          1.2326676297        0.2800881540       -0.3302658595
 H          1.2702706450        0.0186802074       -1.3758883609
 N          2.9348472909        1.9678284162       -0.7162077837
 S          4.5567492644        1.8091606434       -0.3257441160
 O          4.8544024403        2.6447168783        0.8100021860
 O          5.2840127400        2.1005778765       -1.5404098113
 C          4.7294046627        0.0901091520        0.1161867758
 C          4.6875560420       -0.2802760256        1.4448914277
 C          4.7258890303       -1.6280505564        1.7647555990
 C          4.8031749221       -2.5758977208        0.7564155018
 C          4.8492529372       -2.1870069799       -0.5736057927
 C          4.8053056060       -0.8416496515       -0.8999399036
 H          4.8422341444       -0.4988865810       -1.9217481328
 H          4.9148515412       -2.9273392095       -1.3547701744
 H          4.8289924605       -3.6246622937        1.0070877586
 H          4.6909549172       -1.9335437872        2.7981018553
 H          4.6312600803        0.4877137137        2.1984126159
 H          2.7879941294        1.7309239018       -1.6872886681
 H          2.6352565909        2.4552305728        1.8410396568
 H          1.0640398823        1.2884370867        3.3737300424
 H         -0.3909080286       -0.5076058565        2.5095528218
 H         -0.7774919326       -2.1440084748        0.8485862411
 C          0.0298366211       -2.2694147805       -1.1283902019
 C          1.2231611881       -3.1356883499       -0.8594916138
 C         -0.1114629551       -3.7606323332       -1.1304147659
 H         -0.2660515740       -4.2609173785       -2.0746999607
 H         -0.6418543855       -4.2133604017       -0.3057222887
 H          1.9882600110       -3.2072349555       -1.6168120836
 H          1.6020667012       -3.1579675190        0.1509653126
 H         -0.0261358217       -1.7666292901       -2.0860235745
