  62
        -98.93877512
 C          1.3678402768        1.2662102473        0.0610970391
 C          2.3399291314        0.9293836877        1.0302278584
 C          3.0676519014       -0.3294883143        0.8061966914
 C          2.7459738908       -1.0917224852       -0.2550531277
 C          3.4439829401       -2.3602774192       -0.6566532135
 C          4.7799971470       -2.0265003653       -1.3509169188
 C          6.0208091196       -2.4885607059       -0.5867364982
 H          6.1305526995       -3.5685120488       -0.7064428190
 H          6.8873753223       -2.0160364417       -1.0541015685
 C          6.0348214670       -2.1807602060        0.9138597455
 H          5.4295694640       -2.9165641258        1.4457852296
 H          7.0624452276       -2.3183034616        1.2570682650
 C          5.5659795934       -0.7764097917        1.3161031688
 H          5.6961626405       -0.0759665314        0.4908249812
 H          6.2019867449       -0.4271163899        2.1321307329
 C          4.1122283095       -0.7060422635        1.8202357113
 H          3.8426397030       -1.6564427308        2.2900324255
 H          4.0469926034        0.0689288899        2.5900549116
 H          4.7999146039       -2.4835173976       -2.3413382683
 H          4.8267164339       -0.9461018805       -1.5024066356
 H          3.6129784555       -2.9820174552        0.2198661474
 H          2.7854266909       -2.8950059448       -1.3412109596
 O          1.7790964387       -0.7508421051       -1.1457246280
 C          1.0717031243        0.4382021997       -1.0223177628
 O          0.2277136276        0.6307550645       -1.9136260850
 O          2.5821805912        1.6428332035        2.0424562411
 C          0.5707617851        2.5481379504        0.2222001333
 C         -0.9015892212        2.2239592200        0.2871789166
 C         -1.8709305729        2.9003463492       -0.4407577171
 C         -3.2006382632        2.5215262010       -0.3616224150
 C         -3.5924119857        1.4659881640        0.4401202936
 C         -2.6313012904        0.7906051230        1.1817094451
 C         -1.3033253746        1.1767303273        1.1079048316
 H         -0.5576144960        0.6438438396        1.6856091768
 N         -3.0159347992       -0.3009812792        1.9861649320
 S         -3.8825673783       -1.5102075418        1.2112104982
 O         -5.2682784457       -1.1212074965        1.1304074775
 O         -3.6097201007       -2.7150060098        1.9638200020
 C         -3.1835162405       -1.6171416181       -0.4253511485
 C         -3.9250901232       -1.2201736490       -1.5184534560
 C         -3.3432281129       -1.2723476701       -2.7747901756
 C         -2.0380301490       -1.7156189031       -2.9143064522
 C         -1.3069514017       -2.1140367412       -1.8063877823
 C         -1.8818994025       -2.0612350594       -0.5482234987
 H         -1.3391838129       -2.3629051309        0.3346500987
 H         -0.2862992160       -2.4430964044       -1.9178743060
 H         -1.5795434429       -1.7443371047       -3.8898136483
 H         -3.9063471579       -0.9607910062       -3.6397681257
 H         -4.9367255396       -0.8815058396       -1.3653062184
 H         -2.2476192609       -0.7036380252        2.5035552539
 H         -4.6207349876        1.1490368601        0.5034126235
 H         -3.9416979954        3.0523348639       -0.9392381540
 H         -1.5852865920        3.7185377030       -1.0808301128
 H          0.8768342756        2.9672402495        1.1923225530
 C          0.9271279826        3.5346591849       -0.8697759054
 C          0.8263578575        5.0090050733       -0.6199283637
 C          2.1712804995        4.3567034455       -0.7236641965
 H          2.7718404850        4.5448980043       -1.6009719178
 H          2.7490495403        4.2250292493        0.1796947282
 H          0.5055911035        5.6487927094       -1.4281214514
 H          0.4932845797        5.3296641863        0.3555574203
 H          0.6859179366        3.1630099859       -1.8592797924
