  62
        -98.94436392
 C          2.1578604009        0.9545629281       -0.3818723598
 C          3.1730901822        1.1432820799        0.5865124380
 C          4.4587998170        0.4920509136        0.3052840001
 C          4.6015137698       -0.2183180332       -0.8287155776
 C          5.8353295461       -0.9829235277       -1.2098250422
 C          5.7676230661       -2.4312180625       -0.7051097673
 C          5.3809947968       -2.5547459799        0.7687821025
 H          4.3530935417       -2.2077474093        0.8973896251
 H          5.3939247247       -3.6175889153        1.0199437261
 C          6.2992821505       -1.7900835779        1.7324966488
 H          6.5313029723       -2.4364347244        2.5816106075
 H          7.2422789684       -1.5553146997        1.2374803072
 C          5.6930990186       -0.5064417457        2.3025784981
 H          4.7059075919       -0.7216557045        2.7191887476
 H          6.3281580923       -0.1668173551        3.1250893938
 C          5.5566470489        0.6615399295        1.3176179380
 H          6.5135756103        0.8395360164        0.8230489774
 H          5.2966467472        1.5536016471        1.8949555009
 H          5.0261142398       -2.9704231272       -1.2993413432
 H          6.7398736963       -2.8996474672       -0.8687670607
 H          5.9133046522       -0.9904644492       -2.2983070041
 H          6.7092221102       -0.4833133943       -0.7962361987
 O          3.6095437560       -0.3620259284       -1.7440247373
 C          2.3601902678        0.2068341658       -1.5416965068
 O          1.5410068545       -0.0175201786       -2.4528223967
 O          3.0090777392        1.8199256179        1.6369695540
 C          0.7941272287        1.5775635831       -0.1392211113
 C         -0.2402172659        0.4840649627       -0.0430857731
 C         -0.0880577770       -0.4898543667        0.9413324537
 C         -0.9897792084       -1.5296541593        1.0555868698
 C         -2.0690561938       -1.6200409307        0.1934409038
 C         -2.2384433965       -0.6469413620       -0.7813670014
 C         -1.3333836652        0.4025460675       -0.8898614810
 H         -1.4771847208        1.1442720112       -1.6594202134
 N         -3.3395515766       -0.7238199476       -1.6479156471
 S         -4.8332544787       -1.1105777998       -1.0053768878
 O         -4.9352795879       -2.5371780897       -0.8231568308
 O         -5.7967093085       -0.5197295973       -1.9074590175
 C         -4.8793869558       -0.2950296280        0.5816145457
 C         -5.0091646877       -1.0398401747        1.7358371593
 C         -5.0100829502       -0.3876175571        2.9585988271
 C         -4.8779344759        0.9912157942        3.0053814719
 C         -4.7527026114        1.7264262697        1.8363423095
 C         -4.7524941164        1.0798187213        0.6113815503
 H         -4.6630806940        1.6235810354       -0.3151728138
 H         -4.6521656856        2.7991813664        1.8757113709
 H         -4.8734020881        1.4973435003        3.9578410296
 H         -5.1095619714       -0.9566151607        3.8689226142
 H         -5.1069624732       -2.1101724000        1.6544521342
 H         -3.3981148673        0.0297571418       -2.3160407697
 H         -2.7713769036       -2.4354636807        0.2530001390
 H         -0.8517662416       -2.2807335976        1.8185136362
 H          0.7575497714       -0.4220510757        1.6120663956
 H          0.8693479033        2.0644460502        0.8437862269
 C          0.4891624949        2.6313069160       -1.1818477067
 C         -0.4942478836        3.7211803840       -0.8785242398
 C          0.9693381101        4.0327944284       -0.9588022349
 H          1.3337552028        4.5931581249       -1.8067725627
 H          1.5026144323        4.2351165049       -0.0415752541
 H         -1.1359850193        4.0743184992       -1.6717716947
 H         -0.9569095108        3.7167046485        0.0965422517
 H          0.5342374687        2.2460025681       -2.1943952843
