  62
        -98.94878490
 C         -1.8085990090       -1.3425551962       -0.2494648878
 C         -2.8900814430       -0.6674899430        0.3610908320
 C         -3.2718747443        0.6101072497       -0.2478265639
 C         -2.6072895638        1.0595876976       -1.3283740829
 C         -2.8653434924        2.3546967092       -2.0484965929
 C         -2.1511181095        3.5521868824       -1.4059890738
 C         -2.7733657159        4.0512755854       -0.1011676181
 H         -2.3299626759        5.0259185407        0.1126219395
 H         -3.8450960764        4.2012434825       -0.2401043199
 C         -2.5287981773        3.1289485526        1.1014496011
 H         -1.6960780946        2.4576157730        0.8741616325
 H         -2.2214156175        3.7289727687        1.9621911508
 C         -3.7459833421        2.3086524237        1.5316065407
 H         -3.4470957542        1.6625919830        2.3616169544
 H         -4.5281162043        2.9801924456        1.8938012559
 C         -4.3366569288        1.4198682447        0.4291087091
 H         -4.8724043857        2.0293225512       -0.2980130593
 H         -5.0410498111        0.7240360189        0.8922344300
 H         -1.1086159011        3.2775332096       -1.2230674717
 H         -2.1628235722        4.3711830828       -2.1292331133
 H         -3.9374567047        2.5474232483       -2.0985803616
 H         -2.4836317413        2.2295398185       -3.0639747011
 O         -1.5999081831        0.3616260378       -1.9107536314
 C         -1.1315965417       -0.8137735816       -1.3495168961
 O         -0.1378468654       -1.2983366382       -1.9249224817
 O         -3.4956520471       -1.1049641003        1.3789372007
 C         -1.2654944822       -2.6076591837        0.3945668672
 C          0.1666502450       -2.3467016289        0.7906778825
 C          1.2250519501       -3.1970524164        0.5000299174
 C          2.5275687416       -2.8245475240        0.7889553488
 C          2.8037217691       -1.5883899748        1.3449144079
 C          1.7483810761       -0.7453388252        1.6644789183
 C          0.4461015938       -1.1402313681        1.4220570697
 H         -0.3666337306       -0.4665356538        1.6660343149
 N          2.0333735361        0.5729603544        2.1329574613
 S          1.9160424071        1.6608289747        0.8396628115
 O          2.2509715821        2.9587578625        1.3880960311
 O          0.6232763670        1.5828734641        0.1941286044
 C          3.2095742203        1.0886471964       -0.2332805131
 C          4.4986130262        1.5185654543        0.0166761408
 C          5.5303748316        1.0339564183       -0.7701604045
 C          5.2557540736        0.1266843877       -1.7829573739
 C          3.9562231528       -0.2945602565       -2.0187693783
 C          2.9165991157        0.1875106693       -1.2376170465
 H          1.8961936429       -0.1289025248       -1.3970820002
 H          3.7376929152       -1.0020686915       -2.8024569879
 H          6.0588611103       -0.2556098964       -2.3931734950
 H          6.5419863103        1.3602196964       -0.5900401833
 H          4.6585791236        2.2245603879        0.8149231554
 H          1.3854719377        0.8777790310        2.8486037243
 H          3.8154979495       -1.2653062896        1.5277891026
 H          3.3393111710       -3.4931374839        0.5480718327
 H          1.0307774696       -4.1447249024        0.0247950590
 H         -1.8667099108       -2.7594134660        1.3033984052
 C         -1.4370834809       -3.8036885053       -0.5161952840
 C         -1.5703683756       -5.1800890414        0.0623407191
 C         -2.7604196453       -4.5055944589       -0.5490004371
 H         -3.1293709883       -4.8647732163       -1.4978340004
 H         -3.5343163288       -4.1339660423        0.1067567511
 H         -1.1246104965       -6.0077358823       -0.4681427747
 H         -1.5403450947       -5.2757366333        1.1371437963
 H         -0.9080479128       -3.6883617888       -1.4554189253
