  62
        -98.94548968
 C         -1.8105727499       -1.2266694301        0.3709400692
 C         -1.6179458504       -0.0185746797       -0.3431249602
 C         -2.4380993606        1.1204514898        0.0979141805
 C         -3.2926293204        0.9621719390        1.1251673205
 C         -4.2325718207        2.0181396885        1.6289511012
 C         -5.5888642008        1.9393075185        0.9137797314
 C         -5.4822956310        1.8709887693       -0.6097500386
 H         -5.0094387407        0.9275885596       -0.8920119192
 H         -6.5001106310        1.8508002092       -1.0051919485
 C         -4.7095650114        3.0352662098       -1.2453128181
 H         -4.6451315316        3.8653618095       -0.5407819277
 H         -5.2661059417        3.3913395501       -2.1147713779
 C         -3.3054816314        2.6733685605       -1.7326570086
 H         -3.3565624012        1.7858855908       -2.3681446290
 H         -2.9372584417        3.4980238009       -2.3486306982
 C         -2.2640061811        2.4208386903       -0.6353535589
 H         -1.2828827312        2.3634113708       -1.1156999690
 H         -2.2541131513        3.2600527099        0.0635045816
 H         -6.1805533110        2.8105931081        1.2006180120
 H         -6.1115078404        1.0449364881        1.2611229210
 H         -4.3861517105        1.8615080779        2.6981697312
 H         -3.7864485110        2.9992203687        1.4768093617
 O         -3.4322257600       -0.2078289614        1.8001629100
 C         -2.6997073797       -1.3290093010        1.4397103493
 O         -2.9199224493       -2.3360100414        2.1437268188
 H          0.3188943602       -0.8765907902        1.6682640790
 C          0.9857112102       -1.3547462496        0.9608249787
 C          0.4593413303       -2.2107621093        0.0028343783
 C          1.3342620404       -2.8146643385       -0.8925645122
 C          2.6941824403       -2.5649782882       -0.8262669822
 C          3.2115526302       -1.6992717085        0.1193956281
 C          2.3441433802       -1.0819637892        1.0116618286
 N          2.8510928700       -0.1658002896        1.9484189490
 S          3.9829813396        0.9461492010        1.4109611994
 O          5.3017786798        0.3703285514        1.5147779889
 O          3.7565036594        2.1308699806        2.2107782700
 C          3.6104842893        1.2619351318       -0.3063802704
 C          4.6229278991        1.1661437126       -1.2400513006
 C          4.3295139189        1.3963795932       -2.5742650404
 C          3.0317640187        1.7047964730       -2.9515437101
 C          2.0264305788        1.7995694222       -2.0019429199
 C          2.3168382791        1.5834017916       -0.6651801300
 H          1.5441613492        1.6457258510        0.0848603501
 H          1.0100700187        2.0108195521       -2.2925048396
 H          2.7983903585        1.8695621735       -3.9915778599
 H          5.1098475588        1.3247885738       -3.3147404306
 H          5.6133519293        0.9056751927       -0.9033265409
 H          2.1406474900        0.2837741299        2.5068497293
 H          4.2674583001       -1.4907490282        0.1830031881
 H          3.3604545303       -3.0457724276       -1.5257205826
 H          0.9494798805       -3.4825120783       -1.6455483324
 C         -1.0289245196       -2.4669756497       -0.0187068616
 H         -1.2544645792       -3.2225555002        0.7489245580
 C         -1.5186605097       -2.9768474091       -1.3606166318
 C         -1.5645886493       -4.4465130690       -1.6487764125
 C         -2.8363602295       -3.6872416695       -1.4226481719
 H         -3.4860126096       -3.5005999693       -2.2646502017
 H         -3.3628120593       -3.8335281101       -0.4901772419
 H         -1.3435903293       -4.7831839784       -2.6505186328
 H         -1.2358698289       -5.1209259093       -0.8724221029
 H         -1.2751335500       -2.3017706387       -2.1730268615
 O         -0.8031534206        0.1075088010       -1.2915664803
