  62
        -98.93892309
 C         -2.4614668494       -1.2049253201        0.3515974986
 C         -2.5670185993       -0.4192725497       -0.8187379411
 C         -3.2379873191        0.8909254803       -0.6845835006
 C         -3.6738456391        1.2769662899        0.5285975895
 C         -4.3428936290        2.5687143298        0.9187790099
 C         -3.3592306389        3.7457415697        1.0021343704
 C         -2.3879548489        3.8538654901       -0.1702875395
 H         -1.6950272188        4.6715656999        0.0468216108
 H         -1.7905806390        2.9414772100       -0.2312786598
 C         -3.0336566588        4.1338755706       -1.5255972295
 H         -3.6150296587        5.0562554106       -1.4612624091
 H         -2.2219045488        4.3010391108       -2.2381323194
 C         -3.9312882589        3.0261004909       -2.0831310599
 H         -4.0862522588        3.2381051813       -3.1448622598
 H         -4.9137871689        3.0412981308       -1.6188958099
 C         -3.3337552990        1.6253743108       -1.9999137004
 H         -3.9012438791        0.9622705511       -2.6637801606
 H         -2.3173508790        1.6420373809       -2.4106437203
 H         -2.7675785890        3.6313461893        1.9141378804
 H         -3.9343175988        4.6694995097        1.0869187607
 H         -4.7768953391        2.4088776795        1.9084048099
 H         -5.1542052590        2.7932561702        0.2330610800
 O         -3.5132346393        0.4993128695        1.6393505592
 C         -2.9026050194       -0.7370846105        1.5878505388
 O         -2.8074047295       -1.3139666709        2.6921546786
 O         -2.1251497693       -0.7843241393       -1.9391910812
 C         -1.7662919395       -2.5565157102        0.3142548682
 C         -0.3102482795       -2.3269951002       -0.0124504617
 C          0.3338224605       -2.8546215099       -1.1223160119
 C          1.6584354006       -2.5395165099       -1.3764181817
 C          2.3661460706       -1.7028172003       -0.5331746514
 C          1.7325181406       -1.1776518306        0.5860875688
 C          0.4092844306       -1.4959958106        0.8388954486
 H         -0.0881519994       -1.0786262908        1.7070744187
 N          2.4471356907       -0.3191992410        1.4509358991
 S          2.9303829408        1.1429901092        0.7673349797
 O          3.0961601309        2.0502728988        1.8827404000
 O          2.0212469509        1.5656356397       -0.2740743402
 C          4.5277342908        0.7685016393        0.0779138996
 C          5.5090342908        0.3015937989        0.9307668294
 C          6.7585467807        0.0026965190        0.4117825594
 C          7.0044752508        0.1778135794       -0.9421923006
 C          6.0093672909        0.6506052898       -1.7840186304
 C          4.7562672909        0.9498486198       -1.2717285103
 H          3.9485787409        1.3120838701       -1.8875589202
 H          6.2023361809        0.7859070102       -2.8360766004
 H          7.9776632308       -0.0559068005       -1.3440780606
 H          7.5348651407       -0.3657254413        1.0628012493
 H          5.2752121107        0.1841876685        1.9756592894
 H          1.9486726907       -0.1310690213        2.3103024792
 H          3.3954910906       -1.4522488703       -0.7318472113
 H          2.1450472106       -2.9495201796       -2.2481100719
 H         -0.2051121195       -3.4979807496       -1.7976908721
 H         -1.8252665896       -2.9531293005        1.3381591780
 C         -2.4685796696       -3.5138470898       -0.6229345922
 C         -2.2882133097       -4.9910319298       -0.4479649628
 C         -3.5957269097       -4.3488176099       -0.0970466726
 H         -4.4473747996       -4.5254093995       -0.7365958927
 H         -3.8505648797       -4.2401240202        0.9473623975
 H         -2.2440007397       -5.6132293795       -1.3287573030
 H         -1.6544120698       -5.3237627602        0.3600386971
 H         -2.5639080995       -3.1229929594       -1.6286284721
