  62
        -98.94436203
 C         -1.2777827057       -1.6959311107       -0.8515723999
 C         -2.4933212570       -1.5564979462       -0.1318166675
 C         -3.3415127814       -0.4180339489       -0.4922758521
 C         -2.9634288866        0.4010878473       -1.4895755779
 C         -3.6945471947        1.6311233205       -1.9523814559
 C         -3.3621259134        2.8756156254       -1.1170059763
 C         -3.9930465510        2.9070647634        0.2758660040
 H         -3.8820443105        3.9256223305        0.6534258994
 H         -5.0615774369        2.7010614834        0.1979429297
 C         -3.3491386771        1.9403774581        1.2800998013
 H         -2.3629705653        1.6415550816        0.9139119217
 H         -3.1858612698        2.4591527206        2.2283461205
 C         -4.1798514187        0.6928013030        1.5855282617
 H         -3.6035620808        0.0583469712        2.2642937128
 H         -5.1011870554        0.9845603384        2.0954797730
 C         -4.5474774091       -0.1454383992        0.3542530771
 H         -4.9373517394       -1.1064947141        0.6990562450
 H         -5.3182824059        0.3578979985       -0.2288323133
 H         -2.2755992882        2.9508097955       -1.0191623179
 H         -3.7111123779        3.7491182889       -1.6732957816
 H         -3.3831236831        1.8133008875       -2.9832049260
 H         -4.7702904318        1.4535338308       -1.9380452262
 O         -1.8376549857        0.1879258588       -2.2132992102
 C         -0.9307784922       -0.8127428700       -1.8734971168
 O          0.0974053755       -0.7989216292       -2.5756961752
 O         -2.8430061564       -2.3493460578        0.7841488608
 C         -0.3264724791       -2.7576513130       -0.3223986786
 C          0.2970511709       -2.2181954995        0.9429046588
 C          0.3610004074       -2.9635902850        2.1123820627
 C          0.8646647719       -2.3978125093        3.2716935165
 C          1.2987025663       -1.0849688040        3.2891426732
 C          1.2454944293       -0.3319084321        2.1189840390
 C          0.7696766473       -0.9136798819        0.9553487288
 H          0.7089107779       -0.3253268953        0.0556681379
 N          1.6745963028        0.9950989360        2.1040998472
 S          1.5035321419        2.0571698105        0.8310659191
 O          1.7985216301        3.3445402044        1.4252249483
 O          0.2191769995        1.9419421647        0.1837801690
 C          2.8474643314        1.6030676573       -0.2457809987
 C          2.6327256914        0.9828709905       -1.4585667274
 C          3.7303323662        0.6280953188       -2.2296896840
 C          5.0128461206        0.8977998717       -1.7814555193
 C          5.2118783034        1.5279098459       -0.5614074756
 C          4.1215944509        1.8826060685        0.2137846226
 H          4.2291335651        2.3832725191        1.1618022108
 H          6.2102598278        1.7404598679       -0.2145899981
 H          5.8603972087        0.6167720029       -2.3864895258
 H          3.5639733785        0.1368759866       -3.1750353512
 H          1.6304235256        0.7666733809       -1.7959757613
 H          1.8711338191        1.4272644816        2.9916798123
 H          1.6637432424       -0.6379131705        4.2008768454
 H          0.9020857473       -2.9811124192        4.1792996070
 H         -0.0142468838       -3.9762070140        2.1193712829
 H         -0.9634252097       -3.6105615553       -0.0363179624
 C          0.6958960139       -3.2643638743       -1.3242979012
 C          2.1295723776       -2.8351959599       -1.3178877378
 C          1.7641740716       -4.2211230479       -0.8831513600
 H          2.0131801648       -5.0495523133       -1.5285802532
 H          1.8266839821       -4.4450434489        0.1710205943
 H          2.6111542132       -2.6964451857       -2.2731997464
 H          2.4486554013       -2.1284168153       -0.5672304478
 H          0.2535682220       -3.4405664454       -2.2987409051
