  62
        -98.94288905
 C         -1.9953567902       -0.2239125295       -0.2431627208
 C         -2.8140124603        0.7512188008        0.3779849087
 C         -4.1649981103        0.3085809811        0.7582744987
 C         -4.5355964104       -0.9649597990        0.5385415892
 C         -5.8951932405       -1.5285728688        0.8311057593
 C         -6.8226802103       -1.3996944093       -0.3854453809
 C         -6.8412129001       -0.0014905595       -1.0034068115
 H         -5.8581801900        0.2129092002       -1.4289663715
 H         -7.5519995600       -0.0222324299       -1.8324472016
 C         -7.2259673802        1.1191624409       -0.0274599521
 H         -7.7240089203        0.6952755814        0.8452943780
 H         -7.9420053801        1.7807714508       -0.5195853025
 C         -6.0552001402        1.9908986711        0.4303274276
 H         -5.4982213800        2.3428585106       -0.4415588224
 H         -6.4639557902        2.8705095413        0.9346639972
 C         -5.0673175704        1.3268412314        1.3975484381
 H         -4.4085945404        2.1081707716        1.7873507778
 H         -5.6116517805        0.8868813819        2.2354241482
 H         -7.8329517304       -1.6784683490       -0.0802808909
 H         -6.4913156003       -2.1070168496       -1.1493827605
 H         -5.7829159606       -2.5849764987        1.0810243398
 H         -6.3238112306       -1.0069788583        1.6846418890
 O         -3.7130870004       -1.8834257593       -0.0297042702
 C         -2.4403947103       -1.5345637996       -0.4445008002
 O         -1.8058115403       -2.4683323999       -0.9771141797
 H          1.6180301097       -1.4944043800       -0.6190626197
 C          1.5197246696       -0.8574165096        0.2471063500
 C          0.4362896297        0.0012297206        0.3634514095
 C          0.3373712396        0.8041404811        1.4955547891
 C          1.2963067494        0.7352983115        2.4890266492
 C          2.3838077394       -0.1117112587        2.3626454098
 C          2.4974316595       -0.9097759892        1.2316252602
 N          3.6024844795       -1.7675545393        1.0562493507
 S          4.5631393297       -1.5203927500       -0.2937486393
 O          3.8084178998       -1.7899784105       -1.4897985392
 O          5.7380542096       -2.3333680400       -0.0740565587
 C          4.9960246298        0.2086926000       -0.2081012500
 C          6.1788262097        0.5692199502        0.4077431600
 C          6.4821338498        1.9142806802        0.5433273494
 C          5.5950121299        2.8717049901        0.0749947089
 C          4.4098547300        2.4934930999       -0.5368935411
 C          4.1037491499        1.1496640198       -0.6828698106
 H          3.1916424400        0.8235682697       -1.1551412205
 H          3.7174815101        3.2367188197       -0.8982392016
 H          5.8277944900        3.9189650201        0.1861315584
 H          7.4044578998        2.2112617904        1.0160058994
 H          6.8393917596       -0.2089508697        0.7547257705
 H          4.1893991893       -1.8431070190        1.8757000508
 H          3.1369711893       -0.1588931384        3.1348325499
 H          1.2023263594        1.3564883619        3.3666537389
 H         -0.5010144604        1.4766277812        1.5896540787
 C         -0.5884169102        0.0613729301       -0.7443288807
 H         -0.3582487801       -0.7500115802       -1.4488058103
 C         -0.4736478500        1.3798792498       -1.4867233713
 C          0.5939996002        1.5342548492       -2.5259075812
 C         -0.8447987297        1.4374853591       -2.9361883514
 H         -1.3389414196        2.3229260590       -3.3068211118
 H         -1.1809454198        0.5224497489       -3.4029776210
 H          1.0902791203        2.4879310391       -2.6202467016
 H          1.2303398502        0.6832739591       -2.7241046607
 H         -0.7167556100        2.2391503601       -0.8759810217
 O         -2.4592311902        1.9355426509        0.6164505482
