  62
        -98.94280256
 C         -1.8143344973       -0.8824889186        0.2611347303
 C         -3.1667735818       -1.2195080849        0.5245889763
 C         -4.0948847611       -0.0941899606        0.6970943262
 C         -3.6176757860        1.1627180126        0.6512613423
 C         -4.4558797060        2.4029839965        0.7557895402
 C         -4.9144081491        2.8818187378       -0.6288530753
 C         -5.5265134558        1.7793617934       -1.4931843507
 H         -5.8403100836        2.2393445445       -2.4327777661
 H         -4.7535892343        1.0470952668       -1.7384617755
 C         -6.7214476205        1.0591679148       -0.8527349517
 H         -7.5105062476        0.9571833902       -1.6007811142
 H         -7.1240049585        1.6619549746       -0.0378627924
 C         -6.4129235704       -0.3477636359       -0.3369000311
 H         -5.9249053366       -0.9279751963       -1.1245246998
 H         -7.3611107281       -0.8417211750       -0.1085377066
 C         -5.5439998059       -0.4197629089        0.9251499264
 H         -5.9671196695        0.2232488561        1.6995723400
 H         -5.5657600840       -1.4525246827        1.2855419245
 H         -5.6410059818        3.6849351359       -0.4931209924
 H         -4.0506412409        3.2907851592       -1.1581715865
 H         -5.3197508851        2.1990710431        1.3854877971
 H         -3.8550261938        3.1863237258        1.2206880761
 O         -2.3054684700        1.4466567830        0.4602156644
 C         -1.3705806593        0.4399017785        0.2513895086
 O         -0.2113033902        0.8599791028        0.0859701722
 O         -3.5763357374       -2.4074983766        0.6163316915
 C         -0.8369489699       -2.0217748312        0.0387570972
 C          0.4295818948       -1.8037772151        0.8279949151
 C          0.3434516753       -1.7214085116        2.2161300151
 C          1.4742395841       -1.5293367264        2.9845873431
 C          2.7175491498       -1.4205528056        2.3858801579
 C          2.8170831557       -1.5076332149        1.0028592763
 C          1.6768046901       -1.7014250347        0.2326931236
 H          1.7816407863       -1.7417943985       -0.8380474930
 N          4.0755297400       -1.4531164335        0.3792632446
 S          4.4006607193       -0.4710080263       -0.9336557747
 O          3.4801274698       -0.7510314380       -2.0042753741
 O          5.7996609501       -0.7083834955       -1.2183660058
 C          4.2053034628        1.1991184689       -0.3366512462
 C          5.3408808510        1.9499953388       -0.0977875785
 C          5.2058087811        3.2337464063        0.4041697395
 C          3.9417192472        3.7408621697        0.6663393280
 C          2.8140350414        2.9717490919        0.4259875525
 C          2.9396070831        1.6869318441       -0.0809237493
 H          2.0665081210        1.0821576110       -0.2674181436
 H          1.8253389859        3.3517678413        0.6291862341
 H          3.8337410851        4.7396417181        1.0594745370
 H          6.0827125683        3.8328122534        0.5904113488
 H          6.3021347180        1.5145861962       -0.3184001676
 H          4.8499384586       -1.4081146069        1.0264501497
 H          3.6037031741       -1.2730690027        2.9845688078
 H          1.3897700448       -1.4623998458        4.0588379293
 H         -0.6286345908       -1.8048293775        2.6835530641
 H         -1.3466063237       -2.9051396360        0.4602497689
 C         -0.5772825187       -2.3315970063       -1.4280513577
 C         -1.6095236322       -2.0556729336       -2.4788879368
 C         -0.3438448543       -1.2554503928       -2.4437284106
 H          0.4032786106       -1.4227453763       -3.2061849255
 H         -0.3902642419       -0.2316418987       -2.1068409648
 H         -1.7432020111       -2.7788066081       -3.2693461299
 H         -2.5256213508       -1.5744933159       -2.1678647815
 H         -0.0030422157       -3.2451135733       -1.5528596966
