  62
        -98.93758209
 C         -1.0333253671       -1.3859922114       -0.8909508142
 C         -2.3091837730       -1.5987843093       -0.3174822458
 C         -3.3059740280       -0.5186613801       -0.4436843016
 C         -2.9473022147        0.6166914319       -1.0707836925
 C         -3.7564511998        1.8699436579       -1.2818783743
 C         -3.8820342663        2.7148983394       -0.0062120707
 C         -4.2646622683        1.9288484096        1.2443256056
 H         -4.2582427333        2.6255909091        2.0870733124
 H         -3.4939049116        1.1814860510        1.4430029787
 C         -5.6356749105        1.2572157824        1.1994827840
 H         -6.3976082192        2.0123529727        0.9943852471
 H         -5.8280513202        0.8542725836        2.1970599103
 C         -5.7917985450        0.1144343469        0.1920855485
 H         -5.9703605759        0.4911652148       -0.8116467771
 H         -6.6857557211       -0.4484905426        0.4755248859
 C         -4.6344024503       -0.8785162612        0.1772582842
 H         -4.9601610042       -1.7885790935       -0.3408355058
 H         -4.4175437630       -1.1961939048        1.2036991236
 H         -4.6168936970        3.5022952119       -0.1850526260
 H         -2.9154935592        3.1887244413        0.1856043696
 H         -4.7376608306        1.6244475517       -1.6773959032
 H         -3.2296313749        2.4580100397       -2.0368598229
 O         -1.7052623682        0.7841124424       -1.6036096725
 C         -0.7176496759       -0.1863155313       -1.5297885619
 O          0.3491766819        0.1454272071       -2.0761398761
 O         -2.6168690471       -2.6667411263        0.2815417918
 C         -0.0152264004       -2.5009054438       -0.7235079053
 C          0.7502899039       -2.3016612856        0.5595658416
 C          0.8889526035       -3.3242419448        1.4900769865
 C          1.5657036369       -3.1032656596        2.6772714689
 C          2.1078256965       -1.8626272433        2.9603898749
 C          1.9774918599       -0.8340937418        2.0326297885
 C          1.3138685354       -1.0643244031        0.8376886895
 H          1.2069393552       -0.2621651145        0.1262328350
 N          2.5375026726        0.4264009467        2.2685699836
 S          1.9430037890        1.7969283430        1.5191207573
 O          2.5243924769        2.8862357062        2.2794584397
 O          0.4990426216        1.7937186852        1.4519408984
 C          2.6729130380        1.7823124896       -0.1029131526
 C          3.8963584835        1.1705702402       -0.2903680059
 C          4.4706141017        1.1983509649       -1.5502995641
 C          3.8208253738        1.8412114715       -2.5925499924
 C          2.5980953476        2.4577378707       -2.3852717149
 C          2.0151725925        2.4280282205       -1.1289719016
 H          1.0533744759        2.8757167428       -0.9337662471
 H          2.0867236942        2.9493525420       -3.1970455733
 H          4.2672914818        1.8580470245       -3.5744596038
 H          5.4196678616        0.7142412507       -1.7164740379
 H          4.3725098262        0.6748905102        0.5394935611
 H          2.8807814234        0.5973248906        3.2013835539
 H          2.6230878601       -1.6860078662        3.8919695635
 H          1.6626503337       -3.9025843097        3.3961399773
 H          0.4443444200       -4.2876024939        1.2883089790
 H         -0.6143801126       -3.4189105602       -0.6113460188
 C          0.8876285311       -2.6905109075       -1.9331953251
 C          2.3226439299       -2.2681344325       -1.9728334717
 C          1.9757001114       -3.7233219608       -1.9032496893
 H          2.1299219076       -4.3372976562       -2.7774862415
 H          2.1491119744       -4.2325957741       -0.9672400037
 H          2.6942225041       -1.8602775884       -2.8999671342
 H          2.7413904694       -1.7965338342       -1.0979819292
 H          0.3354761130       -2.5909368243       -2.8622874274
