  62
        -98.94625637
 C         -1.6128760763       -1.4303317960       -0.0523840595
 C         -2.5555794285       -0.8932060046        0.8547113225
 C         -3.2268600414        0.3411256224        0.4266611539
 C         -2.9097879056        0.8836263927       -0.7636887575
 C         -3.5107610520        2.1443649061       -1.3137186072
 C         -2.6873082902        3.3802211517       -0.9277025766
 C         -2.3229065709        3.4412156132        0.5551481141
 H         -1.6533535220        2.6107899846        0.7918388942
 H         -1.7595484296        4.3626861081        0.7164027714
 C         -3.5288999857        3.4114344412        1.5048213299
 H         -3.3845201306        4.1684299303        2.2786833177
 H         -4.4358229864        3.6754887956        0.9596059477
 C         -3.7433268805        2.0779702480        2.2232990239
 H         -4.4754982611        2.2357595666        3.0198750658
 H         -2.8102651695        1.7622785205        2.6975388553
 C         -4.2572217416        0.9244033108        1.3523333396
 H         -4.5547546842        0.1107976336        2.0206268263
 H         -5.1387203873        1.2489457334        0.7955499632
 H         -3.2538692090        4.2720157906       -1.2014227047
 H         -1.7621348375        3.3692389432       -1.5051417809
 H         -4.5292786404        2.2425151504       -0.9425059267
 H         -3.5385762236        2.0627629340       -2.4015007674
 O         -1.9758884596        0.3555152108       -1.5945345006
 C         -1.3038220754       -0.8131112405       -1.2652379430
 O         -0.4788396594       -1.1905019454       -2.1155477291
 O         -2.8246948084       -1.4224638180        1.9679682226
 C         -0.9023454340       -2.7234067651        0.3036266707
 C          0.5910816182       -2.5138966122        0.3162403310
 C          1.4890912406       -3.3676448824       -0.3097186325
 C          2.8489769445       -3.1081416916       -0.2709906080
 C          3.3432195383       -2.0025238412        0.3954591913
 C          2.4532770967       -1.1443123517        1.0304888564
 C          1.0931163728       -1.4069271359        0.9910283785
 H          0.4021024650       -0.7366923623        1.4881146276
 N          2.9458019475       -0.0140270653        1.7173297816
 S          3.7676294973        1.1440366804        0.8302345208
 O          4.9425167252        0.5425536012        0.2539960092
 O          3.9915890792        2.2381145583        1.7473367022
 C          2.6447230069        1.6558632601       -0.4571618531
 C          2.4415730416        0.8274472044       -1.5430520945
 C          1.5369098313        1.2132489699       -2.5190570438
 C          0.8620006386        2.4176701904       -2.3966242835
 C          1.0810339266        3.2413286455       -1.3027072338
 C          1.9735487266        2.8541961082       -0.3168016698
 H          2.1724428702        3.4620895510        0.5513120697
 H          0.5605498956        4.1817747695       -1.2125760253
 H          0.1604640986        2.7109759146       -3.1622755909
 H          1.3485714081        0.5625037221       -3.3571167813
 H          2.9848288023       -0.1005743190       -1.6143427147
 H          2.2434366718        0.4436390056        2.2814888108
 H          4.3971795479       -1.7782087980        0.4190279314
 H          3.5345210668       -3.7779464263       -0.7677039426
 H          1.1256945848       -4.2347940039       -0.8358230275
 H         -1.2233214737       -2.9620486085        1.3288121839
 C         -1.3521267690       -3.8388665200       -0.6167713111
 C         -1.3580676486       -5.2589636580       -0.1375834555
 C         -2.6516749503       -4.5287245493       -0.3336301624
 H         -3.2815271846       -4.8050037010       -1.1658909092
 H         -3.2005046539       -4.2120137354        0.5413756325
 H         -1.1020195207       -6.0411000648       -0.8363139740
 H         -1.0312550326       -5.4470907682        0.8739651670
 H         -1.1042064112       -3.6474074782       -1.6547792598
