  62
        -98.93954669
 C         -2.1274762635        1.0137783503       -0.0214714007
 C         -2.8693939964        0.3531814180       -1.0259895885
 C         -3.6113815720       -0.8524084781       -0.6168662092
 C         -3.5285400254       -1.2761082394        0.6583980664
 C         -4.1278703740       -2.4842245651        1.3482644125
 C         -5.2423442353       -3.2908480094        0.6866601052
 C         -6.5725441272       -2.5505534141        0.5502267930
 H         -6.9991867429       -2.4181492198        1.5475979680
 H         -7.2562208892       -3.1801765693       -0.0232308266
 C         -6.4966040729       -1.1735593991       -0.1043963359
 H         -5.8909358168       -0.5069984063        0.5129289503
 H         -7.5079789010       -0.7590818500       -0.1289158498
 C         -5.9539815730       -1.1574785787       -1.5319113442
 H         -6.1026405597       -0.1497951301       -1.9290007683
 H         -6.5279247227       -1.8490323126       -2.1515984847
 C         -4.4599411958       -1.4950918469       -1.6764273912
 H         -4.1134891996       -1.0910778067       -2.6323301893
 H         -4.2971110252       -2.5701336030       -1.6996290097
 H         -5.4137754268       -4.1628922462        1.3236401235
 H         -4.9134034783       -3.6671390951       -0.2775702492
 H         -3.2858465451       -3.1560804954        1.5504096250
 H         -4.4748973675       -2.1272407295        2.3232070842
 O         -2.7678174568       -0.6232165847        1.5864229404
 C         -2.0579634523        0.5272827033        1.2826819693
 O         -1.4236956689        1.0071750431        2.2404221609
 H          0.0735075109        0.2105390075       -1.2639775720
 C          0.6963171677        0.8831375918       -0.6859201963
 C          0.1260397636        2.0277936898       -0.1411629491
 C          0.9343919349        2.8806048452        0.5976546634
 C          2.2714697943        2.5806205636        0.7959176078
 C          2.8317976555        1.4369569637        0.2583375217
 C          2.0336528287        0.5798280897       -0.4885350279
 N          2.5971402908       -0.5808404543       -1.0520577068
 S          3.4131228076       -1.6265028615       -0.0184875455
 O          3.3417791681       -2.9212055447       -0.6615809135
 O          2.9018303991       -1.5496282002        1.3306374210
 C          5.0951693025       -1.0446937000       -0.0737656881
 C          5.7372225891       -0.6823164643        1.0940723756
 C          7.0475419098       -0.2343750446        1.0267506875
 C          7.6887489088       -0.1583265643       -0.2001998984
 C          7.0306006396       -0.5292234802       -1.3635036565
 C          5.7212560421       -0.9787814108       -1.3032200443
 H          5.1752124081       -1.2802194351       -2.1814073300
 H          7.5326080278       -0.4689536756       -2.3156396828
 H          8.7075799620        0.1920718041       -0.2499196953
 H          7.5605027802        0.0538469679        1.9302209747
 H          5.1953870981       -0.7525095553        2.0239764223
 H          1.9485718979       -1.1002163868       -1.6267871395
 H          3.8708717019        1.1983542347        0.4156893998
 H          2.8860456638        3.2482566615        1.3802033637
 H          0.5159986896        3.7743154967        1.0300547957
 C         -1.3450608978        2.2644047503       -0.3800622976
 H         -1.4976098526        2.4043637990       -1.4606561026
 C         -1.8982465678        3.4691399896        0.3504141288
 C         -1.7488856226        4.8394499838       -0.2380046565
 C         -3.0914848796        4.1747225468       -0.2184084760
 H         -3.8436739028        4.5455580481        0.4616084570
 H         -3.4923281351        3.7991652709       -1.1486476350
 H         -1.2388639112        4.9224394853       -1.1856481818
 H         -1.5808400500        5.6714077320        0.4288888286
 H         -1.8467497225        3.3622920747        1.4281624758
 O         -2.9019295206        0.7448997824       -2.2246214452
