  62
        -98.93947164
 C         -1.0368411074       -1.6946940025       -0.3386468257
 C         -2.1950610900       -1.6158518786        0.4777131904
 C         -3.2376610825       -0.6644706530        0.0674491440
 C         -3.0532598300        0.0784107892       -1.0390276304
 C         -3.9762205022        1.0766787320       -1.7031952557
 C         -5.0132839179        1.8371486175       -0.8767452000
 C         -4.4523376391        2.6811435107        0.2650696720
 H         -3.8096972426        3.4601225789       -0.1525239789
 H         -5.2955904720        3.1740056583        0.7546219853
 C         -3.6500561336        1.9192222046        1.3195331731
 H         -2.6848418588        1.6170589346        0.9089490388
 H         -3.4454492737        2.6077917478        2.1435616072
 C         -4.3395932191        0.6868912426        1.9058585516
 H         -5.3446084383        0.9496559260        2.2407514645
 H         -3.7634748878        0.3820976779        2.7829053634
 C         -4.4305517146       -0.5350556008        0.9684412416
 H         -5.3452369652       -0.5200050389        0.3789995361
 H         -4.4521630944       -1.4368917321        1.5862946021
 H         -5.7657564083        1.1544949867       -0.4925548380
 H         -5.5222002224        2.5127834114       -1.5698824599
 H         -3.3227984609        1.7945499677       -2.2081424874
 H         -4.5033727612        0.5312848195       -2.4941880756
 O         -1.9311319522       -0.0389916628       -1.8023337921
 C         -0.8983080735       -0.9098239095       -1.4807865174
 O          0.0469122362       -0.8711164892       -2.2924403019
 O         -2.3583259230       -2.3270426329        1.5046038063
 C          0.0410094889       -2.6692287400        0.1040012234
 C          1.0986573529       -1.9585844626        0.9168124401
 C          1.1571222648       -2.1598066378        2.2919628657
 C          2.1244104022       -1.5350775287        3.0572623083
 C          3.0507856213       -0.6988111149        2.4632395827
 C          2.9986208071       -0.4835586442        1.0896266139
 C          2.0212152368       -1.1055205773        0.3237161629
 H          1.9864622895       -0.9224977901       -0.7389288356
 N          3.9548600758        0.3417783170        0.4801653748
 S          3.5577641891        1.3813822140       -0.7641370363
 O          3.3686515366        0.6532844974       -1.9906258062
 O          4.6398980429        2.3449911557       -0.7633370050
 C          2.0572460203        2.1911751702       -0.2442685015
 C          0.8822945239        1.9952362446       -0.9377871295
 C         -0.2629578244        2.6466188443       -0.5056510485
 C         -0.2162513807        3.4700598847        0.6075102788
 C          0.9745615302        3.6564944966        1.2935683432
 C          2.1234404377        3.0140903839        0.8640443777
 H          3.0708225486        3.1513173906        1.3594673174
 H          1.0083850534        4.3001186309        2.1577193569
 H         -1.1129492718        3.9693543200        0.9397305200
 H         -1.1860595787        2.4988115091       -1.0435040183
 H          0.8746956412        1.3336719557       -1.7903204333
 H          4.6044546124        0.7739183855        1.1208784045
 H          3.8153919432       -0.2172644525        3.0534285654
 H          2.1588419367       -1.7018587011        4.1229608621
 H          0.4274684523       -2.8056761543        2.7579530400
 H         -0.4727911800       -3.3685201565        0.7783954754
 C          0.6540882215       -3.4699843071       -1.0261529033
 C          1.3211470511       -4.7730306464       -0.7059751253
 C          0.0133555547       -4.7599946709       -1.4378571589
 H          0.0028056402       -5.0172698500       -2.4863980952
 H         -0.8728057081       -5.0711679630       -0.9037538567
 H          2.2136092145       -5.0407034740       -1.2505740275
 H          1.3210556885       -5.0951439015        0.3244695695
 H          1.0885627666       -2.8622168314       -1.8089228313
