  62
        -98.93342159
 C         -2.1032918859       -1.1000402478       -0.2669076311
 C         -2.4163969404       -0.2747683160        0.8412612151
 C         -2.5517562973        1.1691877818        0.5967670698
 C         -2.3446665426        1.6426395887       -0.6455132245
 C         -2.3184836765        3.0582731975       -1.1843201037
 C         -2.8602112679        4.2190291151       -0.3543963682
 C         -4.3733564324        4.1985102937       -0.1402491666
 H         -4.6323141704        5.0078814365        0.5456185481
 H         -4.8611417060        4.4021679572       -1.0966900567
 C         -4.9431180986        2.8886337290        0.3978704510
 H         -4.7671890300        2.0886120183       -0.3240885455
 H         -6.0258922176        3.0080724112        0.4908199258
 C         -4.4051956773        2.4531301283        1.7593647898
 H         -5.0062653275        1.6036180646        2.0940525258
 H         -4.5358656831        3.2609316467        2.4818623302
 C         -2.9313530362        2.0115310300        1.7806056062
 H         -2.2608612266        2.8633075245        1.8715202961
 H         -2.7774432091        1.3816132907        2.6617544864
 H         -2.3386490618        4.2722034790        0.5966957147
 H         -2.6157433517        5.1333261784       -0.9020682500
 H         -1.2656260238        3.2563560453       -1.4174945210
 H         -2.8454615885        3.0242690330       -2.1435431416
 O         -2.0537445965        0.8122079731       -1.6874271920
 C         -1.9045840791       -0.5612901679       -1.5368662664
 O         -1.6286571503       -1.1461877154       -2.6006150810
 O         -2.5726926728       -0.7370897531        2.0051247563
 C         -1.8549409430       -2.5646902636        0.0505181850
 C         -0.4828380644       -2.6920846128        0.6675872672
 C         -0.2563222952       -3.4976584997        1.7770604542
 C          0.9978615284       -3.5544851550        2.3595190217
 C          2.0384888857       -2.7875871514        1.8677869441
 C          1.8214295490       -1.9799101928        0.7568751859
 C          0.5755532885       -1.9593554644        0.1503151615
 H          0.4266128166       -1.3310380207       -0.7162445539
 N          2.8426864829       -1.1734025275        0.2278899469
 S          2.3913743519        0.3499666260       -0.3579345326
 O          1.3713682063        0.9272635285        0.4879168289
 O          2.0817291150        0.2326180404       -1.7608613873
 C          3.9278585408        1.2354885912       -0.1611873414
 C          4.9031953226        1.1035560496       -1.1316560246
 C          6.1113382948        1.7607497503       -0.9603983151
 C          6.3233042831        2.5335108058        0.1718309531
 C          5.3343772110        2.6581301535        1.1360744585
 C          4.1241932623        2.0024076465        0.9717367056
 H          3.3224790171        2.0751932507        1.6892560897
 H          5.5001113914        3.2619950633        2.0136122003
 H          7.2641159333        3.0443050599        0.3023386127
 H          6.8809199572        1.6684957779       -1.7095630138
 H          4.6875293585        0.4999297507       -1.9978862954
 H          3.6531754186       -1.1172807210        0.8300094141
 H          3.0084174439       -2.8066843979        2.3409049002
 H          1.1606472107       -4.1830966636        3.2216957406
 H         -1.0765858461       -4.0597638602        2.1985416478
 H         -2.5872516627       -2.8266255413        0.8322270767
 C         -2.0709669453       -3.5143255460       -1.1154824202
 C         -0.9427004860       -4.1041600896       -1.9015171509
 C         -1.7391455746       -4.9708409748       -0.9755465021
 H         -2.4166578608       -5.6948486503       -1.4017486926
 H         -1.2635396472       -5.2904214556       -0.0610387042
 H         -1.0772641685       -4.2074609439       -2.9671413798
 H          0.0641001996       -3.8365487529       -1.6189048530
 H         -2.9668226676       -3.2686809033       -1.6755583505
