  62
        -98.94480491
 C         -1.9641490486        1.0957223296        0.2731152632
 C         -3.0802758725        1.1821001469       -0.6021919607
 C         -4.3108182630        0.5111917950       -0.1671308799
 C         -4.3253370427       -0.1255127187        1.0176629315
 C         -5.4910041570       -0.8948706382        1.5661834565
 C         -5.4276867129       -2.3714772636        1.1512413341
 C         -5.1813696437       -2.5838393917       -0.3425703000
 H         -4.1809714204       -2.2236680638       -0.5943930445
 H         -5.1881374088       -3.6610157154       -0.5230668193
 C         -6.2095563879       -1.9053415196       -1.2586249611
 H         -7.1065106508       -1.6579876014       -0.6896169612
 H         -6.5044488490       -2.6121293908       -2.0371041183
 C         -5.6965887943       -0.6503739896       -1.9674018299
 H         -4.7468091852       -0.8712022860       -2.4612350039
 H         -6.4155686418       -0.3823254747       -2.7461017397
 C         -5.5027586159        0.5849753898       -1.0791300575
 H         -5.3249860736        1.4415922364       -1.7357850978
 H         -6.4137669302        0.7733581893       -0.5073764131
 H         -4.6165393605       -2.8523665733        1.7030819874
 H         -6.3649003261       -2.8513500462        1.4391092263
 H         -6.4157206656       -0.4458309739        1.2088847882
 H         -5.4636866633       -0.8313848654        2.6553493721
 O         -3.2469961473       -0.1757424783        1.8368542963
 C         -2.0414134854        0.4171082338        1.4892124116
 O         -1.1518340755        0.2597362860        2.3508840251
 O         -3.0473374693        1.8027606062       -1.6979038331
 C         -0.6919590162        1.7903556062       -0.1844551516
 C          0.3023031296        0.8096487403       -0.7591765099
 C          0.6888947564        0.8840628798       -2.0920990720
 C          1.6151681081       -0.0052042944       -2.6096923088
 C          2.1756400239       -0.9834964632       -1.8088561368
 C          1.7935479922       -1.0663322563       -0.4756805398
 C          0.8704006162       -0.1703873113        0.0426939152
 H          0.5726985939       -0.2452847369        1.0779399315
 N          2.3683819752       -2.0502998005        0.3504806656
 S          4.0417399255       -2.1317360536        0.3482661843
 O          4.4823542481       -2.9068215254       -0.7851773390
 O          4.4084800888       -2.6511745471        1.6469717575
 C          4.5770140071       -0.4392256907        0.1664541301
 C          5.2720768975       -0.0518017981       -0.9607232143
 C          5.6283150970        1.2797927848       -1.1032249495
 C          5.2800281132        2.1964119456       -0.1237285205
 C          4.5845043135        1.7903470364        1.0048857888
 C          4.2266454001        0.4607317075        1.1535160792
 H          3.6867450782        0.1137111895        2.0203053741
 H          4.3151134641        2.5036673845        1.7672037343
 H          5.5513240027        3.2339082599       -0.2385144939
 H          6.1708047348        1.5981659431       -1.9787082320
 H          5.5184449472       -0.7969174364       -1.6993751367
 H          2.0076270788       -2.0370526865        1.2936895597
 H          2.8963450732       -1.6873438655       -2.1927993141
 H          1.9037527655        0.0637054902       -3.6472531002
 H          0.2476200521        1.6382627877       -2.7270166334
 H         -1.0107194606        2.4556027325       -0.9978975582
 C         -0.0440434242        2.6335285408        0.8974623835
 C          0.9062626713        3.7204995943        0.4978744878
 C         -0.4444252954        4.0693249982        1.0457991478
 H         -0.5101354248        4.4848397170        2.0402078124
 H         -1.1894826598        4.4533295425        0.3642328214
 H          1.7724448986        3.8988994287        1.1156131597
 H          1.0794970167        3.8697585806       -0.5568065487
 H          0.1701036251        2.0822004533        1.8034918286
