  62
        -98.93706740
 C          2.0069008407       -0.5282661169        0.7766561382
 C          2.8301350710        0.6216159199        0.8153966050
 C          4.2527820908        0.4267965109        0.4741659477
 C          4.6955275820       -0.7930895039        0.1206841136
 C          6.0795400416       -1.2833839452       -0.2499725900
 C          7.1841504836       -0.2986721941       -0.6262645586
 C          6.9430996451        0.4739770514       -1.9224622718
 H          7.7497712040        1.2011129109       -2.0393519074
 H          7.0016589612       -0.2250197649       -2.7606749679
 C          5.6032654532        1.1995371549       -2.0198753549
 H          5.5734689639        1.7167511864       -2.9828219042
 H          4.7903155612        0.4703147680       -2.0230617841
 C          5.3385730218        2.2341143412       -0.9276208292
 H          4.4392294151        2.7870687404       -1.2111434922
 H          6.1673883820        2.9432490216       -0.8840902913
 C          5.1043217163        1.6637552421        0.4823969002
 H          6.0437338573        1.4771867373        0.9968412372
 H          4.5553307563        2.4117868074        1.0613065003
 H          7.3741226169        0.3871442382        0.1940933813
 H          8.0936958752       -0.8907492141       -0.7601549127
 H          6.4238940020       -1.8785294556        0.6032106539
 H          5.9313358978       -1.9870633631       -1.0753483987
 O          3.8632117266       -1.8754926572        0.0943232035
 C          2.5242327088       -1.7754301183        0.4173881556
 O          1.9032981949       -2.8563042310        0.3513876529
 H         -1.6263872936       -1.7642460085        0.0664086626
 C         -1.4129596188       -0.8313408288       -0.4330716422
 C         -0.3302008511       -0.0585322990       -0.0391087074
 C         -0.0853563047        1.1378106174       -0.7055320968
 C         -0.8978563328        1.5372373993       -1.7506156860
 C         -1.9865907585        0.7714080197       -2.1302412899
 C         -2.2488284575       -0.4168286324       -1.4608598811
 N         -3.3705450347       -1.2075346147       -1.7879337313
 S         -4.5188101416       -1.4049552937       -0.5822153025
 O         -3.9494035138       -2.1358321833        0.5195679697
 O         -5.6586224607       -2.0064390607       -1.2368788269
 C         -4.9107817882        0.2641752272       -0.0872835607
 C         -4.0810051229        0.9127046707        0.8061191702
 C         -4.3389788591        2.2392339832        1.1141381150
 C         -5.4147458543        2.8899478291        0.5298232347
 C         -6.2409484456        2.2230172434       -0.3621336707
 C         -5.9841997880        0.8993836962       -0.6809666476
 H         -6.5997023417        0.3415777625       -1.3682526190
 H         -7.0787444415        2.7305693257       -0.8124629740
 H         -5.6096481890        3.9226617955        0.7724019097
 H         -3.6935007844        2.7578940792        1.8046190366
 H         -3.2536077926        0.3791580988        1.2446366443
 H         -3.8303409913       -0.9217928792       -2.6417407981
 H         -2.6280284010        1.0894130163       -2.9384284722
 H         -0.6894847429        2.4621241025       -2.2664639765
 H          0.7463554591        1.7505338798       -0.3950071295
 C          0.5263317836       -0.5164826622        1.1175460459
 H          0.2643277881       -1.5634144030        1.3248462040
 C          0.1985530242        0.3061816913        2.3504469867
 C         -1.0370886736       -0.0209973801        3.1316777971
 C          0.3154055157       -0.3242567718        3.7034078780
 H          0.6784286873        0.2776791590        4.5227388383
 H          0.6297333653       -1.3572995294        3.7481728131
 H         -1.6043131087        0.7890752400        3.5645107757
 H         -1.6415398580       -0.8524552066        2.7967746534
 H          0.4809792099        1.3465161700        2.2576624733
 O          2.4245161497        1.7746069782        1.1185316459
