  62
        -98.94098989
 C         -1.5538651916       -0.8620860409       -0.3223990045
 C         -2.8606346330       -1.2964611936       -0.6630293889
 C         -3.9606067144       -0.7459647544        0.1394087910
 C         -3.6756324026        0.0796870772        1.1623978178
 C         -4.6976817659        0.7532116367        2.0307668221
 C         -5.0903684489        2.1255890507        1.4658404321
 C         -5.4447796674        2.1038243867       -0.0210615188
 H         -5.7334848074        3.1190105544       -0.3017859958
 H         -4.5510844340        1.8535485873       -0.5972989974
 C         -6.5735170812        1.1313299764       -0.3908035089
 H         -7.1367167135        0.8597028906        0.5027979791
 H         -7.2648350929        1.6377027406       -1.0677651403
 C         -6.1071771909       -0.1410487292       -1.1008249230
 H         -6.9876215568       -0.6465783872       -1.5065019451
 H         -5.4658686478        0.1243318461       -1.9453396130
 C         -5.3591677525       -1.1558447835       -0.2270296386
 H         -5.9450996639       -1.3719025142        0.6687806372
 H         -5.2589712646       -2.0805619182       -0.8031023409
 H         -4.2518840525        2.8111684426        1.6075305555
 H         -5.9393304080        2.5040545685        2.0380821072
 H         -5.5765115920        0.1159564129        2.1088473949
 H         -4.2686901836        0.8882518194        3.0250229487
 O         -2.4092113536        0.4289628253        1.4966049778
 C         -1.3128310856       -0.0244562903        0.7688601641
 O         -0.2227662521        0.3864013068        1.2024167963
 H          2.1268274051       -0.4351360381       -0.6703909430
 C          1.9051783684       -1.3215869517       -0.1014947952
 C          0.6741842626       -1.9418429474       -0.2349923754
 C          0.4103565999       -3.0789979191        0.5241056599
 C          1.3579791342       -3.5793402087        1.3955939727
 C          2.5862523127       -2.9560665314        1.5290374651
 C          2.8562481453       -1.8164021523        0.7801949666
 N          4.0689581563       -1.1424410559        0.9340105869
 S          4.6657695582       -0.0353573650       -0.1463646300
 O          4.5635166489       -0.5079696666       -1.5085455220
 O          6.0116988750        0.2237789302        0.3214431252
 C          3.6830426208        1.4358466114        0.0608604469
 C          3.0735870065        1.7007071644        1.2697701612
 C          2.3442512406        2.8704551979        1.4075304902
 C          2.2442264970        3.7546276820        0.3452632042
 C          2.8681950769        3.4778553408       -0.8612058338
 C          3.5940463779        2.3070512140       -1.0070626285
 H          4.0838155509        2.0451972479       -1.9319164359
 H          2.7866759057        4.1660660132       -1.6876007571
 H          1.6728351204        4.6629105353        0.4563005898
 H          1.8478295509        3.0804580318        2.3410130985
 H          3.1524421517        0.9920701839        2.0769610380
 H          4.7583618779       -1.5568093171        1.5398349490
 H          3.3260300495       -3.3407169037        2.2142648139
 H          1.1407651706       -4.4621039048        1.9781431603
 H         -0.5534502715       -3.5602587611        0.4267683285
 C         -0.4006462504       -1.4086074075       -1.1456524976
 H         -0.8369125505       -2.2616249907       -1.6920827644
 C          0.1302117894       -0.4472538347       -2.1980016645
 C         -0.7917316480        0.5035283454       -2.8995907375
 C          0.2541514729        1.0273875161       -1.9639117237
 H          1.1100157209        1.5361877733       -2.3832079542
 H         -0.0505191281        1.4143292108       -1.0044889282
 H         -0.6627952603        0.6594643432       -3.9600179240
 H         -1.8225159526        0.5237376517       -2.5765047901
 H          0.9060512832       -0.9050876908       -2.8055127363
 O         -3.0958641188       -2.1127874435       -1.5942723453
