  62
        -98.93183248
 C          2.2583717380        0.7753908359        0.1653467113
 C          3.4800453906        0.7660670348        0.8830116242
 C          4.5414166106       -0.1329986618        0.3942637713
 C          4.2800619244       -0.9379638985       -0.6506949752
 C          5.1863854951       -1.9334064268       -1.3299810433
 C          6.0430700794       -2.8244551897       -0.4175016689
 C          7.5334965418       -2.4815842978       -0.4555816911
 H          8.1029935609       -3.3665553313       -0.1629411736
 H          7.8090328687       -2.2432365945       -1.4850563083
 C          7.9608678272       -1.3351090283        0.4592379494
 H          7.9204434613       -1.6675612208        1.4987913943
 H          9.0043054854       -1.1031362941        0.2330773086
 C          7.1347668962       -0.0538265357        0.3305732452
 H          7.7461429822        0.7756803991        0.6923621319
 H          6.9088153694        0.1510374362       -0.7154210881
 C          5.8382963774       -0.0729936918        1.1543368972
 H          5.7677819905        0.8420067917        1.7507987467
 H          5.8650521150       -0.8967505464        1.8734083431
 H          5.6689505628       -2.7778820562        0.6040005621
 H          5.9269960958       -3.8551108157       -0.7566741890
 H          5.8291593462       -1.3936158125       -2.0301004231
 H          4.5205951938       -2.5533639263       -1.9347586217
 O          3.0730424213       -0.9313237466       -1.2828242500
 C          2.0388384011       -0.0840166969       -0.9114665769
 O          1.0168893419       -0.2081479590       -1.6101359710
 O          3.6822167873        1.4872896543        1.8969587468
 C          1.1712083940        1.7176039769        0.6515902622
 C         -0.1371205462        0.9840250522        0.7957527130
 C         -0.3136522774        0.1191082328        1.8718142825
 C         -1.4965872127       -0.5769125481        2.0326970267
 C         -2.5269977996       -0.4302542910        1.1206443801
 C         -2.3595114411        0.4257109131        0.0410761336
 C         -1.1743023085        1.1335291140       -0.1108243065
 H         -1.0494344152        1.7825272123       -0.9638964951
 N         -3.3935876783        0.5595907485       -0.9005263598
 S         -4.9413394415        0.8911194469       -0.3519246274
 O         -5.6109130668        1.5315634778       -1.4633410689
 O         -4.9153854732        1.6289573994        0.8903194465
 C         -5.6635153683       -0.7152880625       -0.0910470715
 C         -6.2362714256       -1.0225219663        1.1275193350
 C         -6.8083429536       -2.2729806135        1.3030871569
 C         -6.7982821782       -3.1885415693        0.2620759949
 C         -6.2198204047       -2.8639485692       -0.9561116055
 C         -5.6473522369       -1.6153009651       -1.1384952247
 H         -5.1896170097       -1.3244519532       -2.0693683085
 H         -6.2126238342       -3.5791390149       -1.7628877688
 H         -7.2433843431       -4.1611818016        0.4006588643
 H         -7.2580653466       -2.5274712010        2.2493935584
 H         -6.2153798690       -0.2808734639        1.9100639253
 H         -3.1513447575        1.1348409240       -1.6937585323
 H         -3.4509469281       -0.9733337777        1.2359771390
 H         -1.6182147655       -1.2428676824        2.8735216469
 H          0.4937817876       -0.0025474812        2.5809970990
 H          1.5031751437        2.0158101162        1.6595853174
 C          1.0455177790        3.0017535186       -0.1552225781
 C          2.2633715020        3.6744487689       -0.7122687850
 C          1.2567053827        3.0623354209       -1.6372936973
 H          0.6258708618        3.7228756563       -2.2150082193
 H          1.5131179006        2.1482332290       -2.1493375539
 H          2.3284925681        4.7506807839       -0.6584201990
 H          3.2105262399        3.1711586110       -0.5841427922
 H          0.2775973841        3.6542870959        0.2509276947
