  62
        -98.94869817
 C         -1.4044656926       -1.0395617637        0.9244545749
 C         -2.4461475794       -0.5095584598        0.1265023176
 C         -2.8108704309        0.8864390011        0.3981256563
 C         -2.1133766819        1.5986081556        1.3003817770
 C         -2.3388910344        3.0427865921        1.6571495893
 C         -1.6855453146        4.0261946557        0.6758558030
 C         -2.3983637654        4.1742526608       -0.6691250669
 H         -3.4627982359        4.3458999246       -0.5026019589
 H         -1.9934465060        5.0684834779       -1.1475996769
 C         -2.2048226754        2.9837000291       -1.6187306358
 H         -1.3376828639        2.3995552084       -1.3011985309
 H         -1.9803003512        3.3546850081       -2.6222695605
 C         -3.4169858747        2.0603586127       -1.7412834103
 H         -3.1407481813        1.2211435638       -2.3848673159
 H         -4.2398876006        2.5977119485       -2.2197900393
 C         -3.9200650691        1.4895936419       -0.4103254537
 H         -4.4264799136        2.2660268835        0.1632474366
 H         -4.6363014292        0.6941187128       -0.6326608875
 H         -1.6595479528        5.0051360739        1.1609973118
 H         -0.6539947464        3.7117420745        0.4962880342
 H         -3.4085522624        3.2458906603        1.7205962934
 H         -1.8972708227        3.1936254421        2.6447513393
 O         -1.0968509604        1.0631594567        2.0261039656
 C         -0.7118583609       -0.2552357328        1.8473735767
 O          0.2447607652       -0.6112679719        2.5664098627
 O         -3.0525120285       -1.1609585861       -0.7644478102
 C         -0.8745161418       -2.4448251884        0.6775097367
 C         -0.1868095257       -2.4103710228       -0.6667060994
 C         -0.5363597518       -3.1977709370       -1.7541268446
 C          0.0886888769       -3.0097975008       -2.9763385696
 C          1.0470027654       -2.0270569347       -3.1437903689
 C          1.4141792038       -1.2444003164       -2.0536340400
 C          0.8225969620       -1.4677141727       -0.8236132558
 H          1.1127839161       -0.8636004118        0.0234552982
 N          2.3794231757       -0.2330391958       -2.1648580423
 S          2.2352359251        1.1479320525       -1.2262968598
 O          0.8568034100        1.5059649659       -0.9882961837
 O          3.0269768851        2.1374590443       -1.9305120706
 C          3.0633984480        0.7457569630        0.2955734869
 C          4.2074506216       -0.0263179996        0.2463377305
 C          4.8763413221       -0.3048699211        1.4267398496
 C          4.3964910592        0.1948443617        2.6282098757
 C          3.2513012164        0.9740793614        2.6594279838
 C          2.5769963818        1.2550962913        1.4820175900
 H          1.6703421636        1.8400091193        1.4707790959
 H          2.8688848816        1.3544642388        3.5927573717
 H          4.9154356729       -0.0262608472        3.5476297759
 H          5.7667537918       -0.9125958586        1.4078270685
 H          4.5473337410       -0.4001255066       -0.7051354743
 H          2.6858103875       -0.0267549932       -3.1042521271
 H          1.5038403563       -1.8595875060       -4.1072361306
 H         -0.1942548721       -3.6226386295       -3.8188626227
 H         -1.3087628675       -3.9421166545       -1.6525946638
 H         -0.1104082137       -2.6208833411        1.4481032229
 C         -1.9525660615       -3.4967822199        0.8023245719
 C         -1.5711348111       -4.9190676045        1.0805726367
 C         -2.2298112338       -4.0974986398        2.1464922548
 H         -3.2533785911       -4.3168897309        2.4105295167
 H         -1.6281833619       -3.7583160961        2.9772881315
 H         -2.1432419962       -5.7071385137        0.6150837004
 H         -0.5204866324       -5.1415095922        1.1898266015
 H         -2.8006630259       -3.3099308667        0.1552103810
