  62
        -98.94493486
 C          2.5493976932        0.0140619010       -0.0056437301
 C          2.3875371477       -0.9997184842        0.9668001789
 C          2.0409504647       -2.3324329080        0.4589046472
 C          1.9068599086       -2.5158563164       -0.8673362958
 C          1.5672112388       -3.8238933039       -1.5216078134
 C          0.0570398149       -3.9854024072       -1.7356932761
 C         -0.7856317006       -3.6923904083       -0.4941244066
 H         -0.7316553598       -2.6245477243       -0.2686087994
 H         -1.8257101784       -3.9031039781       -0.7547459604
 C         -0.4006212565       -4.5034567984        0.7505491991
 H         -1.3163751645       -4.8520632363        1.2328920770
 H          0.1695477440       -5.3862240079        0.4573980448
 C          0.3836200595       -3.7202819285        1.8056492823
 H         -0.1206216925       -2.7689936927        2.0020066173
 H          0.3711894270       -4.2954985858        2.7357870355
 C          1.8517451069       -3.4298189008        1.4673887516
 H          2.3431937209       -4.3485121445        1.1395976709
 H          2.3435078733       -3.0833774103        2.3813673125
 H         -0.2570717685       -3.2971314240       -2.5234751683
 H         -0.1329020580       -5.0059094923       -2.0751330317
 H          2.0657962704       -3.8561813484       -2.4922519964
 H          1.9449522182       -4.6364791350       -0.9034519716
 O          2.0616500025       -1.5161934233       -1.7722082505
 C          2.3470107571       -0.2217842194       -1.3652250310
 O          2.4136797890        0.6059578437       -2.2945137470
 O          2.5390931198       -0.7998431913        2.2047535097
 C          2.8643144207        1.4258272780        0.4512413144
 C          1.7231305065        2.3554309484        0.1133709588
 C          1.9037829456        3.6801055519       -0.2623663284
 C          0.8094529192        4.4847025596       -0.5336736002
 C         -0.4777779539        3.9886936424       -0.4510540871
 C         -0.6688575745        2.6602093130       -0.0815722107
 C          0.4260612285        1.8698727685        0.2200050006
 H          0.2668003466        0.8486310146        0.5340659431
 N         -1.9609441695        2.1098524817       -0.0519135614
 S         -2.2336143240        0.5198436547        0.4032278025
 O         -1.9437187253        0.3211383735        1.8083459130
 O         -1.5565727704       -0.3479375346       -0.5256329126
 C         -3.9944739412        0.4418658241        0.1385270326
 C         -4.4608277915        0.1985713851       -1.1392666161
 C         -5.8286112057        0.1744421493       -1.3608025285
 C         -6.7029827014        0.3941969177       -0.3066571118
 C         -6.2207211692        0.6340700228        0.9711923120
 C         -4.8536226291        0.6594660080        1.1989341514
 H         -4.4328689640        0.8311682924        2.1766694458
 H         -6.9027355438        0.8005259662        1.7893471097
 H         -7.7669740620        0.3754897553       -0.4820616498
 H         -6.2064805268       -0.0149274934       -2.3525666160
 H         -3.7420135697        0.0265420897       -1.9237887858
 H         -2.6885626266        2.7476954511        0.2336667346
 H         -1.3279072712        4.6132581988       -0.6763685808
 H          0.9637067672        5.5138402272       -0.8205773109
 H          2.9004680709        4.0822678968       -0.3433035121
 H          2.9361365919        1.3664272240        1.5489506584
 C          4.1974659787        1.8877743173       -0.1001723728
 C          5.0679996696        2.8149210962        0.6930012109
 C          5.4561609894        1.3768545766        0.5326036767
 H          6.2917564436        1.1323891234       -0.1056318956
 H          5.3489808664        0.7186769606        1.3827649404
 H          5.6427883922        3.5602436654        0.1642483157
 H          4.7082940065        3.1351118610        1.6592901428
 H          4.1851012507        1.9898784027       -1.1793726206
