  62
        -98.93011717
 C         -2.4291570495       -1.2614838176       -0.1945422490
 C         -2.3439128603        0.0346316219        0.3678111414
 C         -3.6258423346        0.6790562731        0.7160353838
 C         -4.7770068552        0.0093658015        0.5414494331
 C         -6.1828577072        0.4497528438        0.8654140976
 C         -6.5753494637        1.8901156393        0.5099921621
 C         -5.9034880844        2.4539473007       -0.7504482036
 H         -5.4073282835        1.6530844244       -1.3014529772
 H         -6.6704718654        2.8723898531       -1.4047467847
 C         -4.8935387460        3.5624283630       -0.4438717093
 H         -5.3202819404        4.2265756461        0.3107985883
 H         -4.7353966471        4.1541745876       -1.3487258905
 C         -3.5203281098        3.0869304896        0.0294832170
 H         -2.9859219787        2.6134711789       -0.7993288818
 H         -2.9396642017        3.9664319788        0.3187966536
 C         -3.5307137165        2.0956774627        1.2050064292
 H         -2.5675609824        2.1725755237        1.7174302236
 H         -4.3211582301        2.3323217043        1.9131050651
 H         -6.3565972771        2.5460360668        1.3513483382
 H         -7.6586850857        1.8976289664        0.3789753170
 H         -6.8286797528       -0.2487643684        0.3279877417
 H         -6.3512640258        0.2864646511        1.9338290129
 O         -4.8072194053       -1.2622901175        0.0500172776
 C         -3.6521495510       -1.9216509741       -0.3304143022
 O         -3.8409954943       -3.0780773618       -0.7571087192
 H          1.3589287714       -0.9759746484       -0.8627996932
 C          1.1392473067       -1.3579578344        0.1187879103
 C         -0.1029776878       -1.9031203907        0.4015189434
 C         -0.3534575437       -2.3654417375        1.6910843878
 C          0.6087468859       -2.2621457268        2.6759187669
 C          1.8414972097       -1.7002286215        2.3945002457
 C          2.1073207767       -1.2480072812        1.1074008953
 N          3.3771911009       -0.7269861893        0.7950565674
 S          3.5680501961        0.5459720249       -0.2948630996
 O          2.8991636525        1.7360864928        0.1816806839
 O          3.2247535839        0.0965726677       -1.6196661248
 C          5.3363542071        0.7569664258       -0.1810246897
 C          6.1494478787       -0.1108793517       -0.8849140547
 C          7.5244472706        0.0286988257       -0.7854210274
 C          8.0614649732        1.0279544403        0.0127527730
 C          7.2333279512        1.8927939465        0.7119921418
 C          5.8569879006        1.7577660425        0.6169238508
 H          5.1746729463        2.4132381100        1.1341613519
 H          7.6533546949        2.6708262108        1.3289486860
 H          9.1320588866        1.1354552444        0.0875792468
 H          8.1714556885       -0.6397964394       -1.3301812998
 H          5.6868405322       -0.8656843853       -1.4990199086
 H          3.9238790195       -0.5417554327        1.6259932343
 H          2.5910039081       -1.6115079869        3.1665898244
 H          0.3967572756       -2.6150808544        3.6742592037
 H         -1.3228328936       -2.7926298333        1.9125791134
 C         -1.1944944063       -2.0291993363       -0.6332181167
 H         -1.5111346591       -3.0856395226       -0.6593359177
 C         -0.7240864827       -1.6816436301       -2.0380370796
 C         -1.6757518758       -1.1768147846       -3.0800068576
 C         -0.6276907062       -0.2659543998       -2.5184577121
 H          0.2138829630        0.0078451825       -3.1388728729
 H         -0.9275047647        0.5135570749       -1.8353848679
 H         -1.5614128510       -1.5325281942       -4.0928699158
 H         -2.7033098980       -1.0177046187       -2.7860082222
 H          0.0477024239       -2.3619200710       -2.3862329028
 O         -1.2605963177        0.6367949512        0.5866229938
