  62
        -98.94512236
 C          2.4549977618       -1.2137730170        0.0890276076
 C          3.5077673429       -0.7745375530       -0.7542031226
 C          4.3463237275        0.3119380816       -0.2339642626
 C          4.0792273908        0.8223808024        0.9818892641
 C          4.8102388291        1.9737531337        1.6079220941
 C          4.1348170257        3.3098570516        1.2680245632
 C          3.8337324995        3.4901106548       -0.2200283289
 H          3.0779098770        2.7605356621       -0.5213069581
 H          3.3878021554        4.4796147645       -0.3427357564
 C          5.0586559778        3.3629375447       -1.1367136605
 H          5.0324166173        4.1731440288       -1.8683316855
 H          5.9717412213        3.4830759198       -0.5526510198
 C          5.1290580364        2.0534322609       -1.9244225170
 H          4.1781889953        1.8826472452       -2.4354099479
 H          5.8995588292        2.1599413660       -2.6925171719
 C          5.4679385122        0.8007830834       -1.1066185230
 H          5.6747529461       -0.0100478050       -1.8110036532
 H          6.3671728848        0.9798679403       -0.5141188400
 H          3.1914945465        3.3707765736        1.8163233277
 H          4.7804382379        4.1202351254        1.6115262037
 H          4.8025908447        1.8385928215        2.6908007562
 H          5.8408598912        1.9761831608        1.2584814203
 O          3.0691863116        0.3703763738        1.7668685516
 C          2.2231548500       -0.6438267350        1.3409068818
 O          1.3376904275       -0.9384221277        2.1679851094
 O          3.7351680095       -1.2713826510       -1.8890733598
 C          1.5393529272       -2.3080614620       -0.4375411946
 C          0.2066485908       -1.6782406412       -0.7587855267
 C          0.0176305333       -1.0699398139       -1.9966687804
 C         -1.1641438383       -0.4147599017       -2.2880358347
 C         -2.1770472748       -0.3404082607       -1.3474597538
 C         -1.9904831775       -0.9280848302       -0.1040802463
 C         -0.8140239363       -1.6095670207        0.1769276434
 H         -0.6769000244       -2.0482915819        1.1526575082
 N         -3.0049214231       -0.8337448164        0.8669706973
 S         -3.6053590644        0.7014919612        1.1984283118
 O         -2.6337946525        1.7316181814        0.9105869268
 O         -4.0946136524        0.6354994533        2.5585036602
 C         -4.9981982075        0.8499713543        0.0968279854
 C         -5.0726673024        1.9114826535       -0.7835412897
 C         -6.1702451460        2.0090304936       -1.6249098352
 C         -7.1692435622        1.0493049664       -1.5701527148
 C         -7.0809945765       -0.0092634311       -0.6782303191
 C         -5.9869980307       -0.1120192943        0.1659312903
 H         -5.8816553049       -0.9151206154        0.8759378305
 H         -7.8599543545       -0.7534855789       -0.6383202860
 H         -8.0216515294        1.1271250940       -2.2263660614
 H         -6.2404622228        2.8317526881       -2.3182489077
 H         -4.2691998380        2.6309907934       -0.7937937699
 H         -2.7668343905       -1.3030196475        1.7297983181
 H         -3.0962175357        0.1800300161       -1.5615449025
 H         -1.2978381780        0.0478155216       -3.2541251521
 H          0.8187201465       -1.1039283811       -2.7218193142
 H          1.9968194336       -2.6376647112       -1.3799069782
 C          1.4474000204       -3.4945208879        0.4982890345
 C          0.8666385494       -4.7793002812       -0.0098236830
 C          2.3356533411       -4.6787306376        0.2673858020
 H          2.7364148229       -5.1954236896        1.1265897100
 H          3.0135068608       -4.6387552559       -0.5725463330
 H          0.2562612579       -5.3690956864        0.6567020376
 H          0.5459963335       -4.8054146268       -1.0401874981
 H          1.2512653331       -3.2205085726        1.5274627030
