  62
        -98.94505559
 C          0.8619812903        1.1018356854        0.7530160522
 C          1.1471752938        0.5065715878       -0.5009860373
 C          2.0998979076       -0.6127650607       -0.4641323889
 C          2.5046349688       -1.1112839550        0.7161059638
 C          3.4696937387       -2.2483822918        0.9144365039
 C          4.9428753453       -1.8177680329        0.8731764179
 C          5.4743204818       -1.4470707413       -0.5123186571
 H          6.5607169527       -1.3772173688       -0.4287472490
 H          5.2536337417       -2.2532518172       -1.2124227830
 C          4.9368608118       -0.1196016799       -1.0658351893
 H          4.5076896550        0.4682983160       -0.2509791433
 H          5.7633056016        0.4642167531       -1.4772847676
 C          3.8926189665       -0.2706533987       -2.1725281512
 H          3.5563256697        0.7277096925       -2.4639389755
 H          4.3516678250       -0.7377083625       -3.0464748354
 C          2.6607432767       -1.0922126990       -1.7681487291
 H          2.9229082439       -2.1472245023       -1.7076172308
 H          1.8893872367       -0.9583909895       -2.5295808777
 H          5.0793585401       -0.9738502537        1.5537334907
 H          5.5374063764       -2.6506825122        1.2557793443
 H          3.2625750065       -2.6673742251        1.9017028436
 H          3.2954267524       -3.0183342144        0.1626981428
 O          2.0495648724       -0.6297500472        1.9051723017
 C          1.2700728568        0.5151511936        1.9528766248
 O          0.9963765095        0.8974138981        3.1094391151
 O          0.6612243078        0.8854461923       -1.5954494299
 C          0.0494984073        2.3796884702        0.8623148590
 C         -1.1678375846        2.3026149722       -0.0236210344
 C         -1.4026036414        3.1543127231       -1.0948367576
 C         -2.5455284526        3.0113358859       -1.8611902935
 C         -3.4710145411        2.0236970743       -1.5794043343
 C         -3.2468829651        1.1699170475       -0.5046662817
 C         -2.1051368215        1.3182715072        0.2650673293
 H         -1.9398684357        0.6603254126        1.1066419641
 N         -4.1772452861        0.1730412373       -0.1816454863
 S         -3.7423462064       -1.1969432252        0.6500344258
 O         -4.8323223514       -2.1180511593        0.4019419489
 O         -3.4950242297       -0.8874395825        2.0368249645
 C         -2.2656549266       -1.8458341526       -0.1119243094
 C         -1.2647544980       -2.3423179982        0.6973748239
 C         -0.1710813639       -2.9593385740        0.1129088723
 C         -0.0934059532       -3.0599795648       -1.2668097773
 C         -1.0957233873       -2.5371964909       -2.0676211043
 C         -2.1977123797       -1.9309468241       -1.4877550312
 H         -2.9979564381       -1.5313448567       -2.0888262864
 H         -1.0246345322       -2.6051996555       -3.1411188340
 H          0.7534865978       -3.5490507837       -1.7204242140
 H          0.6113275820       -3.3588512636        0.7381706248
 H         -1.3579871701       -2.2353192605        1.7673637002
 H         -4.9078724903        0.0122506476       -0.8579070415
 H         -4.3597592867        1.9109543219       -2.1809922218
 H         -2.7144938026        3.6740796294       -2.6962420266
 H         -0.6793713511        3.9124591214       -1.3455910722
 H         -0.3019952616        2.4084830268        1.9073853599
 C          0.8734908906        3.6412497286        0.6430940288
 C          2.3199741668        3.6916373811        1.0333160168
 C          1.9322437298        3.7355592124       -0.4125066518
 H          2.0449056617        4.6694510220       -0.9433940507
 H          2.1119241087        2.8630766273       -1.0202132282
 H          2.6957039330        4.5915665752        1.4966253575
 H          2.7645181879        2.7856189028        1.4198875176
 H          0.2949020388        4.5393098013        0.8367361282
