  62
        -98.94214908
 C         -0.4773238523       -1.9071968520        0.5220311308
 C         -1.4089991297       -1.7619227999       -0.5348916882
 C         -2.6354376116       -1.0171361275       -0.2136614034
 C         -2.8171291465       -0.5520076145        1.0351089334
 C         -3.9463078185        0.3329138382        1.4797245547
 C         -3.6692702335        1.7852388258        1.0380992679
 C         -4.6579399302        2.3310244012        0.0076307776
 H         -5.5998573728        2.5706886050        0.5068061222
 H         -4.2379714668        3.2631539473       -0.3768914003
 C         -4.9715523023        1.4036517138       -1.1705927024
 H         -5.7110838111        0.6610240232       -0.8656763096
 H         -5.4442525791        2.0165643951       -1.9411449821
 C         -3.7697702729        0.6760835146       -1.7882667149
 H         -3.8985584015        0.6638301782       -2.8728880987
 H         -2.8439114368        1.2176236554       -1.5851940927
 C         -3.6109372493       -0.7878562398       -1.3329127915
 H         -4.5880774929       -1.1990784823       -1.0640726387
 H         -3.2226790198       -1.3753667809       -2.1702304945
 H         -2.6584012438        1.8402940801        0.6260999078
 H         -3.6881552903        2.4419959259        1.9099363886
 H         -4.8842036254       -0.0233515661        1.0595963825
 H         -4.0032021814        0.2713183024        2.5670339220
 O         -1.9283769946       -0.7671764172        2.0398117419
 C         -0.7249971703       -1.4168644097        1.8018520372
 O          0.0237342352       -1.4914815748        2.7974484683
 H          0.5494864639        0.0873074786       -0.3266930029
 C          1.3280398999       -0.3497921821       -0.9301824482
 C          1.6230869326       -1.6979779499       -0.7921660802
 C          2.6125944751       -2.2411398149       -1.6039130795
 C          3.2668571489       -1.4504794403       -2.5327958246
 C          2.9581436616       -0.1091276550       -2.6737852858
 C          1.9699505949        0.4433155466       -1.8669868321
 N          1.5971778853        1.7864495641       -1.9897572680
 S          0.8545944425        2.6161924972       -0.7525481830
 O         -0.4998577375        2.1594536647       -0.5649375321
 O          1.0011553091        4.0061350881       -1.1301084422
 C          1.8399890490        2.2838592565        0.6959174071
 C          3.1724144956        2.6476768350        0.6680067094
 C          3.9673027427        2.3677388855        1.7669384685
 C          3.4217499841        1.7243627971        2.8681237994
 C          2.0812859777        1.3728614154        2.8852875876
 C          1.2811195791        1.6589813504        1.7907932836
 H          0.2358086310        1.3901579476        1.7745719659
 H          1.6494539924        0.8580087550        3.7289034470
 H          4.0426573348        1.4952209930        3.7197461774
 H          5.0092671762        2.6443320538        1.7605170538
 H          3.5616371719        3.1490495576       -0.2030117898
 H          2.1812177486        2.3651275798       -2.5724637750
 H          3.4622760456        0.5007472504       -3.4072385252
 H          4.0294634712       -1.8862773690       -3.1601205255
 H          2.8634049202       -3.2856305597       -1.5141752370
 C          0.8865835752       -2.5103754547        0.2502379566
 H          1.4466957473       -2.4354601756        1.1949654680
 C          0.7670229340       -3.9738083519       -0.1281086889
 C          1.8064194488       -4.9617225513        0.3070487657
 C          0.4506827612       -4.9712423310        0.9445277105
 H         -0.2271000566       -5.7794058445        0.7143594497
 H          0.3559706331       -4.5962847824        1.9535469630
 H          2.0606776006       -5.7697927006       -0.3623356032
 H          2.6343786523       -4.5945321782        0.8946969294
 H          0.2980110575       -4.1137705212       -1.0950319539
 O         -1.2181412551       -2.2147350190       -1.6941877679
