  62
        -98.94031693
 C         -2.6446049225       -1.1423642603        0.2668231091
 C         -2.5420458420       -0.2996917373       -0.8681692561
 C         -3.3779581219        0.9093039849       -0.8403763988
 C         -4.1803064895        1.1516062499        0.2109676190
 C         -5.1083484773        2.3256044209        0.3673433816
 C         -4.4300350546        3.5881592450        0.9167486382
 C         -3.4945313196        4.3019851661       -0.0600411528
 H         -4.0202018401        4.4826996928       -0.9980564178
 H         -3.2601022776        5.2755239584        0.3750563038
 C         -2.1814576618        3.5565759970       -0.3387719531
 H         -1.3449835251        4.2565151257       -0.2782354365
 H         -2.0210729137        2.8011320803        0.4344442260
 C         -2.1127225698        2.8840538055       -1.7101416220
 H         -2.1350599632        3.6458549637       -2.4923841394
 H         -1.1611275862        2.3510940829       -1.7838386493
 C         -3.2397779818        1.8774690686       -1.9761551420
 H         -2.9839876197        1.3062752479       -2.8717460446
 H         -4.1799758125        2.4003848520       -2.1493215090
 H         -5.2214736906        4.2843981802        1.2036431378
 H         -3.8783601710        3.3224649025        1.8217971352
 H         -5.5788643984        2.5507977199       -0.5900824109
 H         -5.8835050480        2.0174437750        1.0723798036
 O         -4.2486113687        0.3180483875        1.2840617087
 C         -3.4589917630       -0.8192661881        1.3544106789
 O         -3.5676493650       -1.4496974067        2.4261508111
 O         -1.7990897607       -0.5293032398       -1.8552922660
 C         -1.7998252798       -2.3976928226        0.4005471157
 C         -0.3773699005       -2.1043168760       -0.0139103873
 C          0.3211243643       -2.8390731358       -0.9618909387
 C          1.6275377833       -2.5091969808       -1.2794947101
 C          2.2622462267       -1.4440263668       -0.6688035651
 C          1.5749449472       -0.7042115117        0.2849700253
 C          0.2730924634       -1.0476378464        0.6130289733
 H         -0.2619518812       -0.4710428682        1.3594845859
 N          2.1995512026        0.3979696261        0.8939455189
 S          3.7429151492        0.2052378482        1.5223122915
 O          3.9706612727       -1.1521406243        1.9616237180
 O          3.8690700784        1.2353549184        2.5308021315
 C          4.8177331860        0.5955164153        0.1577979057
 C          5.8127613179       -0.2893702915       -0.2086459111
 C          6.6479026722        0.0412750829       -1.2646195526
 C          6.4743893745        1.2445696388       -1.9309958008
 C          5.4713362313        2.1231822442       -1.5491310312
 C          4.6342174147        1.7995215310       -0.4934190694
 H          3.8449444770        2.4552909201       -0.1653051370
 H          5.3385585695        3.0576381816       -2.0702452300
 H          7.1241577812        1.4995297121       -2.7532214531
 H          7.4280963082       -0.6404082608       -1.5629475798
 H          5.9057494268       -1.2162535292        0.3345478811
 H          1.6083003130        0.8955295701        1.5433510012
 H          3.2755597153       -1.1787745477       -0.9226451211
 H          2.1563874136       -3.0857142468       -2.0231137246
 H         -0.1621250568       -3.6572019286       -1.4696473351
 H         -1.7901470161       -2.6196820977        1.4814471395
 C         -2.3897326102       -3.6218803562       -0.2842460391
 C         -3.8647718271       -3.7384687525       -0.5245303335
 C         -2.9281212869       -3.5729871198       -1.6813947979
 H         -2.7581326848       -4.4229590451       -2.3260420915
 H         -2.8996533918       -2.6236514957       -2.1916560275
 H         -4.3328316350       -4.6993255333       -0.3710068568
 H         -4.4871299935       -2.9013801075       -0.2423763962
 H         -1.8822785327       -4.5346603605        0.0127594049
