  62
        -98.94530882
 C          2.1337521933        0.9022201230        0.0725678673
 C          2.8444130441        0.2241990936        1.0907658335
 C          3.5590036034       -0.9907612072        0.6774405901
 C          3.4605209458       -1.4088190333       -0.5979621339
 C          4.1710650814       -2.6028650920       -1.1652118452
 C          5.5347793046       -2.2112882356       -1.7515315469
 C          6.3895190967       -1.3607613379       -0.8118622217
 H          7.3386986542       -1.1720843136       -1.3178308917
 H          5.9040208493       -0.3929348927       -0.6673390987
 C          6.6580869553       -2.0019724173        0.5567660461
 H          6.4638028157       -3.0740217028        0.5082389887
 H          7.7145545313       -1.8746457002        0.8017710015
 C          5.8576545209       -1.3938719076        1.7098778043
 H          6.2784633357       -1.7641547809        2.6484227369
 H          5.9753966828       -0.3073922629        1.7042422483
 C          4.3578516271       -1.7155614920        1.7242578251
 H          3.9566482353       -1.3867373037        2.6875925207
 H          4.2115578855       -2.7947395149        1.6426148406
 H          6.0732104750       -3.1246601472       -2.0107950249
 H          5.3657887315       -1.6437872617       -2.6695579573
 H          3.5511256837       -3.0259049425       -1.9577026780
 H          4.3003452245       -3.3482971661       -0.3827411681
 O          2.7285746603       -0.7574806726       -1.5377815462
 C          2.0538032305        0.4163644808       -1.2329420228
 O          1.4340882593        0.9159772523       -2.1901085181
 O          2.8729880348        0.6125460631        2.2905391968
 C          1.3820080959        2.1746913504        0.4216575659
 C         -0.0929582195        1.9760979167        0.1721149198
 C         -0.8739068318        2.8487078024       -0.5730348880
 C         -2.2160868264        2.5813351882       -0.7831864117
 C         -2.8087104864        1.4513496907       -0.2512363910
 C         -2.0383334050        0.5755270655        0.5030194585
 C         -0.6959116618        0.8461891758        0.7123823704
 H         -0.0950830155        0.1584703228        1.2959189000
 N         -2.6345702782       -0.5718011013        1.0605272257
 S         -3.4575416336       -1.5996082817        0.0148079193
 O         -3.4241652314       -2.8956170754        0.6584339682
 O         -2.9252633881       -1.5343075524       -1.3267725388
 C         -5.1271654846       -0.9816202671        0.0456786833
 C         -5.7533561743       -0.6304905895       -1.1340985838
 C         -7.0560524872       -0.1584255502       -1.0860860783
 C         -7.7054792682       -0.0478435472        0.1338785849
 C         -7.0629492454       -0.4070459652        1.3095484957
 C         -5.7613525070       -0.8805766743        1.2686214328
 H         -5.2270580215       -1.1733787350        2.1569211306
 H         -7.5712219812       -0.3194007505        2.2562343139
 H         -8.7184114474        0.3209644624        0.1685015761
 H         -7.5568218721        0.1210429935       -1.9991063889
 H         -5.2053293355       -0.7277897455       -2.0578878405
 H         -2.0041009851       -1.1051238311        1.6426535430
 H         -3.8515525822        1.2371334314       -0.4189562143
 H         -2.8089979477        3.2634805628       -1.3730694653
 H         -0.4299866749        3.7319311525       -1.0015342490
 H          1.5299729436        2.3137543402        1.5030609439
 C          1.9726177448        3.3619853793       -0.3081736962
 C          1.8587210120        4.7375794840        0.2757008905
 C          3.1821685334        4.0352563084        0.2654228214
 H          3.9482611934        4.3828693425       -0.4113436098
 H          3.5669840549        3.6516821937        1.1992238164
 H          1.7179679940        5.5720403476       -0.3943900725
 H          1.3462582523        4.8378404974        1.2203462764
 H          1.9240728849        3.2539951273       -1.3859036567
