  62
        -98.93992356
 C         -1.6487334102       -1.2925268891       -0.7498652484
 C         -2.8353384376       -0.8454592837       -0.1156606589
 C         -3.2963216310        0.5145584820       -0.4346270826
 C         -2.5883526460        1.2498792823       -1.3090405754
 C         -2.8082541968        2.6876826841       -1.6879504101
 C         -1.9483440169        3.6010674279       -0.7961637238
 C         -2.6181479460        4.0362409485        0.5060253270
 H         -1.8698546370        4.5816063485        1.0860703430
 H         -3.4328377089        4.7286045942        0.2811048337
 C         -3.1636637204        2.8928640153        1.3658126524
 H         -2.4386757571        2.0755446933        1.3804707145
 H         -3.2551118382        3.2585137036        2.3908568914
 C         -4.5345685715        2.3823576988        0.8964142878
 H         -5.2180547433        2.3540190064        1.7475820749
 H         -4.9531666990        3.0958597002        0.1865452076
 C         -4.5386343390        0.9760745078        0.2770788296
 H         -5.3872674556        0.8924003620       -0.4100873923
 H         -4.6973241182        0.2327874676        1.0646415088
 H         -1.0189403765        3.0722739594       -0.5632858656
 H         -1.6841834763        4.4989246790       -1.3592450333
 H         -3.8600964002        2.9510327081       -1.6249493416
 H         -2.4769096551        2.7958369996       -2.7227460436
 O         -1.4887472661        0.7667422870       -1.9402134865
 C         -0.9619925552       -0.4801917927       -1.6504684782
 O          0.0897896563       -0.7249648679       -2.2754979379
 O         -3.4794492112       -1.5588342148        0.7023313950
 C         -1.1133980447       -2.6390339348       -0.2899438648
 C         -0.2521149240       -2.4116285904        0.9320987678
 C         -0.4865280071       -3.0935783658        2.1189417611
 C          0.2544626057       -2.8029526803        3.2513451813
 C          1.2103202379       -1.8044333956        3.2285452947
 C          1.4558406455       -1.1183414627        2.0425484571
 C          0.7565565571       -1.4586550900        0.8958703762
 H          0.9595193766       -0.9334579186       -0.0218732851
 N          2.4017382880       -0.0856252101        1.9974000085
 S          2.1778173889        1.3069473260        1.0801787282
 O          2.6609501194        2.3776936081        1.9306236041
 O          0.8206254541        1.4350757669        0.6105176703
 C          3.3402851886        1.0939030188       -0.2519633146
 C          2.9335996585        0.6629729911       -1.4974837098
 C          3.8898144878        0.4884520981       -2.4877711425
 C          5.2247368945        0.7449780226       -2.2198017568
 C          5.6170916778        1.1799308277       -0.9623488748
 C          4.6685060109        1.3557107616        0.0304278228
 H          4.9259244046        1.7057629786        1.0162954844
 H          6.6556479989        1.3816025726       -0.7549961962
 H          5.9613470110        0.6065181934       -2.9955476947
 H          3.5765132241        0.1493008404       -3.4623910621
 H          1.8907929263        0.4623169628       -1.6921210016
 H          2.8108311120        0.1413777066        2.8920770850
 H          1.7583777434       -1.5473448076        4.1224556038
 H          0.0649454748       -3.3383678231        4.1693657861
 H         -1.2712862321       -3.8342583944        2.1590849889
 H         -1.9939419543       -3.2147928377        0.0274422596
 C         -0.3737273204       -3.4359412952       -1.3430575619
 C         -0.3024138221       -4.9266083052       -1.2063180628
 C         -1.1486323113       -4.3116531197       -2.2794383920
 H         -0.8206275351       -4.3820695442       -3.3053086377
 H         -2.2222924778       -4.3401738830       -2.1624696927
 H          0.6101613503       -5.4253244099       -1.4938078528
 H         -0.8041335674       -5.3779607074       -0.3638572188
 H          0.4910502015       -2.9246472228       -1.7439426972
