  62
        -98.92898330
 C         -2.4955727393       -0.8867291719        0.7855028875
 C         -2.8237356077       -0.3489487843       -0.4829409830
 C         -3.5918627729        0.9114776045       -0.4767105419
 C         -3.9101613137        1.4924448365        0.6916150126
 C         -4.7214332930        2.7410402493        0.9316504274
 C         -4.4480555195        3.9489136756        0.0245950789
 C         -2.9938824218        4.0907571690       -0.4482383187
 H         -2.6536686938        5.1083114539       -0.2472936771
 H         -2.3486867502        3.4142923940        0.1149995945
 C         -2.8244187321        3.8270146644       -1.9465206621
 H         -3.6408699743        4.3163554967       -2.4821916430
 H         -1.8918302384        4.2875712418       -2.2811420110
 C         -2.7719055828        2.3547134184       -2.3536053614
 H         -2.7696317143        2.3074246428       -3.4452519879
 H         -1.8334110478        1.9069340610       -2.0145244243
 C         -3.9216880213        1.4806355746       -1.8266094127
 H         -4.8605081270        2.0291431253       -1.8137832807
 H         -4.0263033330        0.6248833207       -2.4991571412
 H         -4.7357812052        4.8376983515        0.5887207407
 H         -5.1009028371        3.9060081617       -0.8460853999
 H         -5.7805058390        2.4756794201        0.8641659914
 H         -4.5236898974        3.0118030836        1.9716148631
 O         -3.5300935323        0.9641070202        1.8901393759
 C         -2.8113387744       -0.2155355728        1.9681316220
 O         -2.5083261735       -0.5524899143        3.1309276419
 H          0.3386850631       -0.5154711820        0.9998104884
 C          0.4546777074       -1.2260281228        0.1893246828
 C         -0.5339293947       -2.1825722402       -0.0102014684
 C         -0.3779300478       -3.0905947383       -1.0479982225
 C          0.7339265815       -3.0275676025       -1.8698482738
 C          1.7093406121       -2.0675920602       -1.6759675582
 C          1.5664273494       -1.1567240553       -0.6368749358
 N          2.5470425166       -0.1637484169       -0.4381387107
 S          4.1590110532       -0.6711271885       -0.4988567992
 O          4.5584320845       -0.7585055444       -1.8809176385
 O          4.3298901841       -1.8747059234        0.2843610169
 C          4.9886609533        0.7005057317        0.2788090350
 C          5.3560102467        0.6056021757        1.6075399376
 C          5.9912438861        1.6826044669        2.2057671058
 C          6.2435284938        2.8305809453        1.4698937833
 C          5.8673877366        2.9111940139        0.1371507334
 C          5.2336593374        1.8375565059       -0.4677410972
 H          4.9335860676        1.8509568800       -1.5024857191
 H          6.0675626527        3.8048026332       -0.4316756884
 H          6.7392608836        3.6665535594        1.9375789236
 H          6.2870970825        1.6216324951        3.2407362482
 H          5.1477751765       -0.3096843928        2.1382996308
 H          2.3754028577        0.3706384176        0.4029440280
 H          2.5798119092       -2.0129441733       -2.3096421855
 H          0.8410496875       -3.7351464887       -2.6784212282
 H         -1.1379407488       -3.8324641243       -1.2295167110
 C         -1.7140803429       -2.1813447915        0.9308154363
 H         -1.3180046269       -2.1574111747        1.9599375368
 C         -2.5649591406       -3.4384427415        0.8296662234
 C         -3.9925200802       -3.4376923209        1.2869419347
 C         -3.6717734809       -3.5890030290       -0.1682076525
 H         -3.8183522505       -4.5567539933       -0.6255307462
 H         -3.8660705350       -2.7603172475       -0.8299271613
 H         -4.3582478854       -4.2973866515        1.8280578931
 H         -4.4075035087       -2.4995088009        1.6262685933
 H         -1.9893793594       -4.3308060713        1.0570802547
 O         -2.5125513917       -0.8856915007       -1.5758421295
