  62
        -98.94111658
 C          1.9016366749        0.9180719354        0.2669686177
 C          2.3043212383       -0.0811451388        1.1873118260
 C          2.5283345869       -1.4233234897        0.6368199059
 C          2.2843304418       -1.6447740960       -0.6674111817
 C          2.5011526420       -2.9530825020       -1.3705958643
 C          3.9155748431       -3.0426936419       -1.9608369005
 C          5.0209335593       -2.6705371829       -0.9726199003
 H          5.9748870376       -2.7964757410       -1.4889112459
 H          4.9291727695       -1.6119223980       -0.7192042847
 C          5.0238665994       -3.5010771582        0.3183081321
 H          4.4415834295       -4.4117092702        0.1739958974
 H          6.0499438302       -3.8024109756        0.5387775832
 C          4.5035850687       -2.7590459406        1.5508622851
 H          5.0207559476       -1.8011494772        1.6478910470
 H          4.7478906764       -3.3538310611        2.4349003131
 C          2.9926240171       -2.4949449472        1.5829770315
 H          2.4502250042       -3.4259740149        1.4036066077
 H          2.7360586810       -2.1385487041        2.5852174533
 H          4.0744868158       -4.0604609456       -2.3215583752
 H          3.9766228498       -2.3647666433       -2.8152332509
 H          2.3356417066       -3.7666509638       -0.6666472454
 H          1.7698195242       -3.0303125613       -2.1770967779
 O          1.8517701606       -0.6763370534       -1.5120461339
 C          1.6340797434        0.6212532103       -1.0711864336
 O          1.2246955626        1.3912601623       -1.9602508187
 H         -0.6313689528        0.9353444407        1.0746914829
 C         -0.8108881606        1.8712433047        0.5633207309
 C          0.2476383058        2.7444580564        0.3421809587
 C         -0.0054192514        3.9428579231       -0.3104056036
 C         -1.2831976855        4.2384482033       -0.7542682927
 C         -2.3229898604        3.3464359154       -0.5731040040
 C         -2.0812213825        2.1483920045        0.0914370575
 N         -3.1169130032        1.2212181712        0.3101935346
 S         -2.7263653797       -0.4215491927        0.3188219606
 O         -2.2325411936       -0.7705952641        1.6288501652
 O         -1.8721292629       -0.7533548029       -0.7994371637
 C         -4.3480929495       -1.1284799683        0.0897520830
 C         -5.1800182139       -1.2535805406        1.1864294839
 C         -6.4521503538       -1.7729816475        1.0061630611
 C         -6.8694951387       -2.1552231567       -0.2602322003
 C         -6.0230941321       -2.0250544118       -1.3510679541
 C         -4.7498253293       -1.5051613623       -1.1778366181
 H         -4.0530267039       -1.3927684078       -1.9933147193
 H         -6.3483796661       -2.3257075706       -2.3339687443
 H         -7.8595736866       -2.5600943588       -0.3978307986
 H         -7.1117431532       -1.8782105153        1.8522996432
 H         -4.8069130030       -0.9514574496        2.1510396871
 H         -3.9283998202        1.4025672904       -0.2653282381
 H         -3.3114871141        3.5678078076       -0.9459134552
 H         -1.4661602461        5.1694475145       -1.2692211742
 H          0.8007067881        4.6324236097       -0.4993630306
 C          1.6109056727        2.3049689882        0.8149081859
 H          1.5560361386        2.1558702918        1.9073916322
 C          2.7067061998        3.3315333903        0.5731366159
 C          4.1232257698        2.9062129452        0.3302194756
 C          3.3307629413        3.5358305446       -0.7737074095
 H          3.5834655012        4.5426743517       -1.0726491478
 H          2.9832766363        2.9117187580       -1.5816116054
 H          4.3225056403        1.8456265469        0.2747077092
 H          4.9166120089        3.4769933082        0.7890103991
 H          2.5733040395        4.2174547228        1.1865599495
 O          2.4653333446        0.1408699174        2.4190607056
