  62
        -98.93762698
 C         -1.7399846919       -0.2891978829       -0.3449639889
 C         -2.9348222506       -0.6459606980       -1.0078785634
 C         -4.1914153208       -0.4902253115       -0.2493223460
 C         -4.1286690938       -0.0430952142        1.0190323346
 C         -5.2672402201        0.2313254078        1.9650277996
 C         -6.0041712171        1.5406545045        1.6383741875
 C         -6.2867629288        1.7674823567        0.1554607185
 H         -6.7040103928        2.7721055440        0.0468980227
 H         -5.3451815079        1.7470923408       -0.3962849105
 C         -7.2680245374        0.7842394013       -0.4781896875
 H         -8.2227536511        0.8404607590        0.0496337234
 H         -7.4380088131        1.1126061529       -1.5068366764
 C         -6.8199024474       -0.6781876995       -0.5149610362
 H         -7.4941337760       -1.2080261412       -1.1944156055
 H         -6.9333802828       -1.1473263978        0.4586324717
 C         -5.4069619797       -0.8995897432       -1.0460566119
 H         -5.2771653597       -1.9688974397       -1.2537226844
 H         -5.3086862048       -0.4052235147       -2.0193171679
 H         -6.9414819544        1.5579041704        2.1969555127
 H         -5.3865293821        2.3709328381        1.9891257975
 H         -5.9548180754       -0.6091077207        1.9760321696
 H         -4.8315225584        0.3175366896        2.9628098217
 O         -2.9481308256        0.2761323317        1.6229087852
 C         -1.7331661728        0.1665508687        0.9727000878
 O         -0.7470094388        0.4960742704        1.6576972290
 H          2.2243518194       -0.1000661021       -0.3567509604
 C          1.8130095618       -1.0450955890       -0.0460852369
 C          0.4963979495       -1.3622015060       -0.3376130272
 C          0.0038269952       -2.6008548155        0.0670652487
 C          0.8040911390       -3.4869637836        0.7601713116
 C          2.1171017008       -3.1631188207        1.0555138867
 C          2.6222745542       -1.9353606103        0.6477716784
 N          3.9385118969       -1.5672832602        0.9543694198
 S          4.8453776402       -0.6485164120       -0.1035202133
 O          4.5756763200       -0.9942212108       -1.4797724365
 O          6.2118521576       -0.8364529585        0.3365587530
 C          4.3633653305        1.0362656014        0.2114914435
 C          4.0665258286        1.4260887458        1.5021116927
 C          3.7217023689        2.7471903683        1.7384376443
 C          3.6870216686        3.6527543839        0.6890771576
 C          3.9954732022        3.2473911652       -0.6001427326
 C          4.3379224992        1.9266784882       -0.8438044729
 H          4.5745884262        1.5649145047       -1.8320430513
 H          3.9677013192        3.9534910174       -1.4149987683
 H          3.4156862627        4.6797207226        0.8767853847
 H          3.4762668701        3.0646903682        2.7391478111
 H          4.0945793480        0.6971140088        2.2946243556
 H          4.4894336704       -2.2706393656        1.4232492081
 H          2.7432900002       -3.8530837745        1.6004844625
 H          0.4055750708       -4.4409230160        1.0717236062
 H         -1.0213919219       -2.8558681130       -0.1650838995
 C         -0.4185740751       -0.4197581054       -1.0790150128
 H         -0.6650751543       -0.8763274897       -2.0495205766
 C          0.1839324131        0.9479523693       -1.3223743553
 C          1.0973345263        1.1755275341       -2.4883807769
 C         -0.2869182481        1.7489289446       -2.4977247333
 H         -0.4040794475        2.8156713293       -2.3810587904
 H         -1.0259763016        1.2956865500       -3.1422175528
 H          1.9306686740        1.8498387495       -2.3624223994
 H          1.3084256723        0.3335349750       -3.1304977246
 H          0.3881110388        1.4824153453       -0.4009121273
 O         -2.9596963761       -1.0796496197       -2.1924977711
