  62
        -98.94093426
 C         -1.0469441136       -1.5581658348        0.4642452916
 C         -2.0253495819       -1.3074117833       -0.5266333440
 C         -3.1675795898       -0.4844597900       -0.1050787789
 C         -3.2282510793       -0.0200550320        1.1558493729
 C         -4.3407647914        0.7954173489        1.7597123895
 C         -4.5253366955        2.2140395296        1.1864165989
 C         -5.5678707333        2.3114654911        0.0655528309
 H         -6.2754132097        1.4882222616        0.1723887765
 H         -6.1371849075        3.2339494485        0.1965345543
 C         -5.0147456982        2.3279748032       -1.3626696992
 H         -5.8476973177        2.1473760120       -2.0457366167
 H         -4.6196820537        3.3230282133       -1.5803033227
 C         -3.9029286936        1.3215881980       -1.6612200677
 H         -2.9638647263        1.6698543968       -1.2217097234
 H         -3.7439201454        1.2989965734       -2.7413754788
 C         -4.1742119728       -0.1079597427       -1.1525013871
 H         -5.1875364954       -0.1927962718       -0.7629155268
 H         -4.0555794670       -0.8216565658       -1.9702650985
 H         -4.8525707477        2.8489484738        2.0115902704
 H         -3.5614524742        2.5971870438        0.8495767131
 H         -5.2765907718        0.2402380175        1.6630914012
 H         -4.1033829107        0.8702195044        2.8229226219
 O         -2.2606075317       -0.2795773292        2.0773614472
 C         -1.1350493790       -1.0146848789        1.7448691337
 O         -0.2969576422       -1.1189823869        2.6650070867
 O         -1.9534960602       -1.7479149534       -1.7036159174
 C          0.1987070125       -2.3498474589        0.1142972030
 C          0.9830652951       -1.6363557454       -0.9617901457
 C          1.6711554054       -2.2941736360       -1.9738285664
 C          2.3926157208       -1.5735082858       -2.9101835703
 C          2.4674415866       -0.1935187016       -2.8463987370
 C          1.7877571285        0.4725435647       -1.8335022494
 C          1.0520065039       -0.2515830903       -0.9104041567
 H          0.5062152035        0.2809579316       -0.1468892816
 N          1.8347158176        1.8705559637       -1.7106597327
 S          1.9088535624        2.5340624772       -0.1753528478
 O          0.6109046173        2.5042015205        0.4521700004
 O          2.4729024736        3.8511695624       -0.3841848055
 C          3.0793402461        1.5093328011        0.6984680990
 C          2.6705030410        0.6398073875        1.6882652832
 C          3.6149675475       -0.1777559500        2.2905816584
 C          4.9420067944       -0.1133586745        1.8973408742
 C          5.3390247883        0.7731627421        0.9072350192
 C          4.4004998912        1.5897374825        0.2996736309
 H          4.6704857904        2.2991354760       -0.4657164423
 H          6.3727942010        0.8263886205        0.6063919861
 H          5.6695985842       -0.7558495123        2.3675424652
 H          3.2955264415       -0.8632235797        3.0596199839
 H          1.6320893040        0.5973815955        1.9792840522
 H          2.4616436549        2.3345684780       -2.3514504853
 H          3.0351680097        0.3643690567       -3.5749082411
 H          2.9132507228       -2.0958591497       -3.6981628759
 H          1.6351276380       -3.3694982955       -2.0343418860
 H          0.8179965702       -2.3583074455        1.0243691572
 C         -0.1568818161       -3.7774230175       -0.2464101108
 C          0.7917102303       -4.8951576891        0.0640119609
 C         -0.4708007292       -4.7423184051        0.8561428426
 H         -1.2674698202       -5.4553557554        0.7065786687
 H         -0.4001394353       -4.3746801669        1.8698549986
 H          0.8610739456       -5.7195517689       -0.6295752594
 H          1.7235255638       -4.6421381544        0.5467416035
 H         -0.7497342111       -3.8409457661       -1.1512518336
