  62
        -98.94803816
 C          1.2521147322        1.0535647013       -0.0321095822
 C          1.6288240167        0.0072591460        0.8425881501
 C          2.6472633835       -0.9174334081        0.3353652335
 C          3.1079421560       -0.7767171358       -0.9207273474
 C          4.1191375752       -1.6630519972       -1.5960850854
 C          5.5774065508       -1.3015933283       -1.2815874311
 C          6.0461688022       -1.6556842513        0.1302826054
 H          7.1327515880       -1.5498449045        0.1423624951
 H          5.8184686969       -2.7023969988        0.3345966276
 C          5.4515435105       -0.7717462674        1.2353806896
 H          5.0363708469        0.1358100276        0.7912450536
 H          6.2446506372       -0.4607309796        1.9189339272
 C          4.3696704073       -1.4500825112        2.0757474630
 H          3.9960383464       -0.7248853643        2.8029803431
 H          4.8041345112       -2.2869413552        2.6269266446
 C          3.1736654921       -1.9681012338        1.2657120357
 H          2.3715371227       -2.2282933676        1.9611593768
 H          3.4523453937       -2.8632610395        0.7095322253
 H          5.7159871469       -0.2319213552       -1.4547665435
 H          6.2062909430       -1.8382888869       -1.9956640702
 H          3.9314960574       -2.7029111949       -1.3257839775
 H          3.9593239037       -1.5517440890       -2.6709129663
 O          2.6761611020        0.2069972998       -1.7541394927
 C          1.7485312423        1.1494772334       -1.3317765550
 O          1.4536469848        1.9995472925       -2.1937019625
 H         -0.8468004755       -0.1583228688       -0.6082679545
 C         -1.4519667782        0.7061979725       -0.8322583276
 C         -1.0370326013        1.9615000197       -0.4106651235
 C         -1.8176539919        3.0616548649       -0.7444877045
 C         -2.9716177259        2.8989491117       -1.4914900161
 C         -3.3864108818        1.6438217216       -1.8986804462
 C         -2.6151848637        0.5364257551       -1.5648181868
 N         -2.9915090144       -0.7581032046       -1.9518428481
 S         -2.6775108032       -2.0495572238       -0.9376616885
 O         -1.2785084302       -2.3967773820       -0.9767639465
 O         -3.5929411008       -3.0783044901       -1.3848385740
 C         -3.1574901215       -1.4837752635        0.6849951807
 C         -4.5074400736       -1.2911727195        0.9115710694
 C         -4.9217455928       -0.8073579444        2.1409191488
 C         -3.9824312793       -0.5189415316        3.1199557140
 C         -2.6332352198       -0.7231348052        2.8797484902
 C         -2.2124803315       -1.2109593814        1.6519672140
 H         -1.1654846850       -1.3702471823        1.4459713209
 H         -1.8935469853       -0.5008878256        3.6324989006
 H         -4.3024908250       -0.1356134458        4.0759725323
 H         -5.9715704106       -0.6534634984        2.3314103450
 H         -5.2069958603       -1.5378882256        0.1295242866
 H         -3.8974184447       -0.8297903488       -2.3905928930
 H         -4.2887297769        1.5198379942       -2.4772621379
 H         -3.5625687154        3.7630967750       -1.7540781000
 H         -1.5176722052        4.0469910879       -0.4275746965
 C          0.2141389416        2.0582513316        0.4287097029
 H         -0.0502338763        1.7526416624        1.4532922355
 C          0.8013380606        3.4540763953        0.4740052703
 C          0.3420610083        4.4389649678        1.5063371302
 C          1.7026697693        3.8212033932        1.6137432176
 H          2.5687322784        4.4329240455        1.4103075121
 H          1.8673886954        3.0726699284        2.3751913391
 H         -0.4148778742        4.1161093098        2.2049104635
 H          0.2756217821        5.4806404356        1.2305240714
 H          1.0635989621        3.8248359294       -0.5104252673
 O          1.1311898552       -0.1493699079        1.9907179041
