  62
        -98.93749283
 C          2.2514906782        0.9284070826        0.4225352874
 C          2.4923699329        0.0287974183       -0.6426256347
 C          3.3421326149       -1.1346835814       -0.3313165152
 C          3.8030825999       -1.3013078452        0.9200124481
 C          4.6449838858       -2.4263497456        1.4687338108
 C          5.8152042830       -2.9208829661        0.6073074866
 C          6.4949635111       -1.8410646177       -0.2471820177
 H          7.5725138734       -1.8810847652       -0.0773615189
 H          6.1538559979       -0.8508321102        0.0596826983
 C          6.2486568411       -2.0238977384       -1.7467588275
 H          6.3510701495       -3.0833661611       -1.9914098180
 H          7.0232600279       -1.4851446601       -2.2977587006
 C          4.8983303819       -1.5210712940       -2.2559822066
 H          4.8036954932       -1.8142598628       -3.3042006311
 H          4.8745955635       -0.4284477845       -2.2255908393
 C          3.6686349668       -2.0339261181       -1.4887520116
 H          3.8024848104       -3.0657789647       -1.1733539584
 H          2.8073949257       -1.9823879986       -2.1604478147
 H          5.4743901410       -3.7252482252       -0.0430187236
 H          6.5455018236       -3.3579169213        1.2904312137
 H          5.0248878231       -2.0558268720        2.4239695893
 H          3.9836300682       -3.2689430088        1.6914568768
 O          3.5113955469       -0.4269832803        1.9264525165
 C          2.7408070951        0.7017141255        1.7066036012
 O          2.5580233371        1.4069097682        2.7213155884
 H         -0.1262766952        0.2726734712        1.2515306442
 C         -0.6366588821        0.7650303378        0.4315836640
 C          0.0168337887        1.7806714824       -0.2558830586
 C         -0.6563478280        2.4159656333       -1.2908323918
 C         -1.9390206251        2.0258104812       -1.6360973572
 C         -2.5773061621        1.0021827211       -0.9610549799
 C         -1.9188779694        0.3686363769        0.0850635683
 N         -2.5563459130       -0.6796524589        0.7736764351
 S         -4.0931631103       -0.3937375291        1.3897285278
 O         -4.2813605932        1.0015806783        1.7139662765
 O         -4.2443243598       -1.3330052982        2.4798636570
 C         -5.1820189659       -0.8653929011        0.0626061889
 C         -6.1253454995        0.0283567235       -0.4052357244
 C         -6.9694105013       -0.3653518487       -1.4321096563
 C         -6.8562847139       -1.6387293546       -1.9687150097
 C         -5.9047978257       -2.5250480428       -1.4858349119
 C         -5.0587146683       -2.1383929968       -0.4588242389
 H         -4.3081348065       -2.7965311805       -0.0536907151
 H         -5.8192220123       -3.5142391387       -1.9059921919
 H         -7.5133177934       -1.9426923115       -2.7682233336
 H         -7.7097110459        0.3219152718       -1.8088661421
 H         -6.1720006604        1.0098622499        0.0388766577
 H         -1.9732026884       -1.1142048468        1.4743527005
 H         -3.5729994821        0.6914188040       -1.2319726406
 H         -2.4475302177        2.5244466080       -2.4469984558
 H         -0.1757619663        3.2152453511       -1.8303947205
 C          1.4069673866        2.1674170126        0.1904384749
 H          1.3184596564        2.6619933604        1.1697044726
 C          2.1112680903        3.1058435828       -0.7676564623
 C          1.9108483157        4.5868276196       -0.6618219256
 C          3.2136588551        3.9751711542       -0.2447523278
 H          4.0832037246        4.1357624559       -0.8643017225
 H          3.4364338312        3.9110563802        0.8108684267
 H          1.2512739331        4.9486371971        0.1126014655
 H          1.8892203466        5.1710214181       -1.5693953148
 H          2.2398257464        2.6729892651       -1.7529123328
 O          2.0162242862        0.1803772061       -1.7964921988
