  62
        -98.94088161
 C         -0.1991160253       -1.8175551423       -0.1273801970
 C         -1.3112881777       -1.8910172914        0.7386578036
 C         -2.4756903490       -1.0548031246        0.3946369328
 C         -2.4148271473       -0.2760513336       -0.7004175675
 C         -3.4768353495        0.6411746269       -1.2491139826
 C         -4.1036630832        1.6098913433       -0.2334062136
 C         -5.5722367789        1.3013266698        0.0602781134
 H         -6.0514851641        2.2064739543        0.4400003618
 H         -6.0663748722        1.0382864255       -0.8772088214
 C         -5.8059284009        0.1922480028        1.0847104126
 H         -6.8777511043       -0.0193176537        1.1021933616
 H         -5.5312061211        0.5568324797        2.0772479008
 C         -5.0541020871       -1.1171680844        0.8309810081
 H         -5.0562998981       -1.3654184260       -0.2291283263
 H         -5.5980866958       -1.9128891578        1.3447179463
 C         -3.6172916117       -1.1229770440        1.3728987492
 H         -3.4889096693       -0.3125777791        2.0989075286
 H         -3.4430651298       -2.0484241122        1.9317858408
 H         -3.5238641316        1.6028783174        0.6901728671
 H         -4.0443313036        2.6198466170       -0.6429247005
 H         -2.9894620586        1.1981661510       -2.0506106435
 H         -4.2579948492        0.0369417282       -1.7148236295
 O         -1.3196241832       -0.2382458775       -1.5109786884
 C         -0.1797501528       -0.9729078187       -1.2363093776
 O          0.7564501320       -0.7938842281       -2.0364153010
 O         -1.3337004029       -2.6290971152        1.7631533339
 C          1.0482657641       -2.6141662203        0.1990184917
 C          2.2278681139       -1.6949074193        0.4035770652
 C          3.5285952568       -2.0515528778        0.0673449377
 C          4.5759129689       -1.1746134269        0.2898783472
 C          4.3510562944        0.0771914440        0.8330601664
 C          3.0532385873        0.4420014419        1.1740757769
 C          2.0114887651       -0.4483470665        0.9750712967
 H          1.0125652620       -0.1543688718        1.2612733034
 N          2.7757744641        1.7060067565        1.7185725405
 S          1.3545206497        2.4992189176        1.3677368283
 O          1.6157189442        3.8704115078        1.7588766179
 O          0.2402123587        1.8721838417        2.0369052979
 C          1.1052634451        2.4587512882       -0.3994750483
 C         -0.1796990089        2.6812135520       -0.8510168644
 C         -0.4111837261        2.7559252688       -2.2139858360
 C          0.6391719025        2.5923139444       -3.1018015047
 C          1.9222234092        2.3644789316       -2.6338720285
 C          2.1641773799        2.3089704868       -1.2708670131
 H          3.1587900100        2.1327944469       -0.8956476319
 H          2.7372830547        2.2253072052       -3.3254957184
 H          0.4546139635        2.6352887329       -4.1636251240
 H         -1.4097519031        2.9368614321       -2.5790204103
 H         -0.9735184261        2.7788810110       -0.1267015451
 H          3.5573793223        2.3432488297        1.7625293901
 H          5.1665464511        0.7658449150        0.9933986699
 H          5.5810693798       -1.4652657050        0.0253729037
 H          3.7211527534       -3.0169432861       -0.3711047453
 H          0.8357558069       -3.1142833104        1.1566174118
 C          1.2960896412       -3.6716431212       -0.8583041846
 C          1.8971768280       -4.9941000521       -0.4886512087
 C          0.4472407852       -4.9065692874       -0.8553107591
 H          0.1252116013       -5.3146008155       -1.8014891429
 H         -0.2871120100       -4.9982229114       -0.0681264516
 H          2.5716788778       -5.4670457689       -1.1865274153
 H          2.1449806837       -5.1600482063        0.5490104531
 H          1.5510164029       -3.2415958189       -1.8202804841
