  62
        -98.94126281
 C          1.8611297200       -0.5935742111       -0.0111141949
 C          2.5740177322       -0.0779536183       -1.1232910836
 C          3.6716732702        0.8492392956       -0.8196518039
 C          3.8921117313        1.2077060819        0.4580329191
 C          5.0116387789        2.0941381026        0.9190947553
 C          6.2566346693        1.2710715799        1.2791678333
 C          6.6578131978        0.2552482011        0.2093621599
 H          7.5641323313       -0.2437337898        0.5590423004
 H          5.8805216970       -0.5086861382        0.1336545697
 C          6.9104325412        0.8600481949       -1.1788408065
 H          7.0687251383        1.9355389647       -1.0909417784
 H          7.8276078051        0.4297665258       -1.5865040458
 C          5.8019421097        0.5931719591       -2.1988723184
 H          5.5775464873       -0.4763096734       -2.2245549596
 H          6.1754297428        0.8721679387       -3.1877090461
 C          4.4906002578        1.3561698478       -1.9731786760
 H          4.6998803440        2.4218319533       -1.8590177702
 H          3.8695773866        1.2212636698       -2.8637559815
 H          7.0847270768        1.9590777429        1.4588062402
 H          6.0570485499        0.7301441954        2.2071859960
 H          5.2502162473        2.8091473968        0.1339287835
 H          4.6775844342        2.6382874088        1.8042015876
 O          3.1341188220        0.7610432313        1.4900780294
 C          2.1052462688       -0.1534701479        1.2911558104
 O          1.5058319825       -0.4687092004        2.3345113020
 H         -0.5458422758        0.6986137854       -0.5923886503
 C         -1.0491743634        0.0685295091        0.1311704492
 C         -0.5112482971       -1.1784373581        0.4290666209
 C         -1.1658526601       -1.9769085289        1.3564170022
 C         -2.3135766331       -1.5237995352        1.9844238606
 C         -2.8353760274       -0.2764025260        1.6989561628
 C         -2.1937829358        0.5267812972        0.7637975767
 N         -2.7206537755        1.7931114371        0.4586419915
 S         -4.3720095460        1.9263424072        0.2277544689
 O         -4.5395888358        3.0658938902       -0.6470235894
 O         -5.0378226834        2.0100541767        1.5037179642
 C         -4.8482039952        0.4218952986       -0.6050351876
 C         -5.7248227335       -0.4556343602       -0.0005741795
 C         -6.0491963097       -1.6345415025       -0.6528554395
 C         -5.4911103194       -1.9153068635       -1.8900692917
 C         -4.6146872778       -1.0213942571       -2.4864989070
 C         -4.2880685961        0.1590936373       -1.8396298573
 H         -3.6141756646        0.8773721210       -2.2788350247
 H         -4.1816606935       -1.2407621847       -3.4492960532
 H         -5.7401409398       -2.8353678045       -2.3947776465
 H         -6.7319011119       -2.3304708499       -0.1927304212
 H         -6.1338885855       -0.1987453886        0.9628717920
 H         -2.2068708090        2.2941099330       -0.2505260672
 H         -3.7156462360        0.0974150988        2.1961859882
 H         -2.8048869909       -2.1491867528        2.7139787677
 H         -0.7627769590       -2.9430713313        1.6103801916
 C          0.7481485963       -1.5873129546       -0.2921366550
 H          0.5629527896       -1.4829555978       -1.3746480413
 C          1.1359804720       -3.0403383161       -0.0626167301
 C          2.5613219582       -3.4859777327       -0.1899716734
 C          1.8917584024       -3.4913980223        1.1498773186
 H          1.6345180122       -4.4448057708        1.5879225105
 H          2.1731074319       -2.7418603937        1.8725202891
 H          2.7641028173       -4.4310866512       -0.6709753738
 H          3.3069040631       -2.7286284448       -0.3853146399
 H          0.3859961042       -3.7236090548       -0.4488062393
 O          2.3000690328       -0.3768721375       -2.3168001967
