  62
        -98.93877506
 C          2.7522214682        0.6592832760       -0.1170352854
 C          2.3677484252       -0.2617914778       -1.1245431561
 C          2.6049233273       -1.6836820146       -0.8128146433
 C          3.1760746326       -2.0270719991        0.3540441689
 C          3.4274060055       -3.4337390546        0.8130797186
 C          2.2477541104       -3.9728786674        1.6331211914
 C          0.8857754537       -3.7801574137        0.9653680549
 H          0.1391473128       -4.2464603825        1.6121178319
 H          0.6458085247       -2.7148443451        0.9191930738
 C          0.7796025206       -4.3734912620       -0.4459970669
 H         -0.1721166866       -4.9017257571       -0.5320143951
 H          1.5743138670       -5.1040969846       -0.6049263347
 C          0.8104475039       -3.3329650613       -1.5674420818
 H          0.0921414896       -2.5388944772       -1.3451711903
 H          0.4868365852       -3.8180278604       -2.4930139377
 C          2.1769297412       -2.6912148542       -1.8423305103
 H          2.9342723151       -3.4702946788       -1.9580049771
 H          2.1013441083       -2.1412014089       -2.7853079289
 H          2.4152152108       -5.0359291681        1.8171393241
 H          2.2324488015       -3.4580805868        2.5965330855
 H          3.6007371360       -4.0672101351       -0.0546320403
 H          4.3224910673       -3.4342924306        1.4377063996
 O          3.5642542377       -1.1133069022        1.2812974511
 C          3.3327737463        0.2356962618        1.0814795130
 O          3.7017143339        0.9616939583        2.0277891790
 H          0.1587445398        0.8029109535       -0.1672558638
 C          0.1205483911        1.6815834419        0.4584865278
 C          1.2377190018        2.4963692121        0.5689090008
 C          1.1681471286        3.6190420450        1.3853850202
 C         -0.0003239502        3.9227347479        2.0615555766
 C         -1.1162507039        3.1156670030        1.9375313690
 C         -1.0509547827        1.9784043157        1.1384838691
 N         -2.1482837572        1.1089934952        1.0424096750
 S         -2.3339760038        0.1643590172       -0.3447025462
 O         -1.4485774848       -0.9671689369       -0.2561262100
 O         -2.2302486600        0.9950946520       -1.5228716650
 C         -4.0196224584       -0.3728761793       -0.1243713837
 C         -5.0420115856        0.3613662998       -0.6954612351
 C         -6.3522451143       -0.0425047098       -0.4927529448
 C         -6.6166756595       -1.1665929578        0.2752890188
 C         -5.5801743563       -1.8948569985        0.8400542955
 C         -4.2677754698       -1.4964365814        0.6407453325
 H         -3.4289069457       -2.0342236282        1.0512390502
 H         -5.7891026265       -2.7704982163        1.4331284598
 H         -7.6369840740       -1.4790676669        0.4317554595
 H         -7.1597270701        0.5191320417       -0.9340073930
 H         -4.7877297440        1.2211325324       -1.2944096934
 H         -3.0186874875        1.5285255146        1.3383025224
 H         -2.0273078734        3.3523066452        2.4654655802
 H         -0.0435019922        4.7983178976        2.6913327358
 H          2.0412468595        4.2446707211        1.4990624217
 C          2.4987323757        2.1572552702       -0.1874301581
 H          3.3381945765        2.6283411568        0.3509838600
 C          2.4942917915        2.7237523382       -1.5990305034
 C          1.2400831431        3.0248387964       -2.3569627445
 C          2.0892122088        4.1474054035       -1.8456222384
 H          2.6585900367        4.7272331037       -2.5561658888
 H          1.7136999998        4.7149629501       -1.0079139124
 H          0.2925305527        2.8242851241       -1.8791716427
 H          1.2339080710        2.8093808442       -3.4145941757
 H          3.3262935598        2.3461386011       -2.1843770344
 O          1.8678508352        0.0547931448       -2.2342147597
