  62
        -98.93864670
 C         -1.2293610802       -1.4166026698        0.6229593299
 C         -2.1153438603       -1.2562222394       -0.4669286801
 C         -3.1459133700       -0.2042608591       -0.3303002698
 C         -3.1490420697        0.5822275907        0.7615682203
 C         -4.1006861493        1.6707704009        1.2165421405
 C         -5.2613001093        2.1092365514        0.3283142707
 C         -4.8496553191        2.9545305015       -0.8794233192
 H         -5.7076086991        3.0495160218       -1.5478430791
 H         -4.5935646188        3.9561728314       -0.5250753790
 C         -3.6522145393        2.4319512113       -1.6682634294
 H         -3.3930897391        3.1785451413       -2.4237993792
 H         -2.7955579593        2.3371571109       -1.0000516994
 C         -3.8717189297        1.1031399415       -2.3855892296
 H         -2.9792490198        0.8917262313       -2.9817477296
 H         -4.7156929497        1.1918539518       -3.0729994395
 C         -4.1201479200       -0.1043569186       -1.4707737998
 H         -5.1448119200       -0.1113460884       -1.1072385697
 H         -3.9799590303       -1.0102822686       -2.0682163899
 H         -5.8402289095        1.2430693516        0.0210463206
 H         -5.9199381690        2.7220258315        0.9494399208
 H         -4.5087896894        1.3119255309        2.1676258805
 H         -3.4872567091        2.5437150807        1.4612811407
 O         -2.1997673797        0.4572129503        1.7370413802
 C         -1.2352096799       -0.5280332000        1.6997745000
 O         -0.4503746799       -0.5170400604        2.6692207000
 H          1.9695414899       -1.1790544809        1.4548139098
 C          2.0264374597       -1.4218358707        0.4013652997
 C          0.9886590495       -2.1372459503       -0.1829074804
 C          1.0529152594       -2.4113022601       -1.5438150204
 C          2.1354592394       -1.9844276403       -2.2938491704
 C          3.1724566697       -1.2799439007       -1.7071635903
 C          3.1100946698       -0.9930206209       -0.3502268303
 N          4.1481599301       -0.2363048613        0.2454176698
 S          4.1591967105        1.3826054088       -0.1869443399
 O          4.4024598805        1.4793336490       -1.6027765199
 O          5.1268546207        2.0179949484        0.6770430701
 C          2.5157817307        1.9578428292        0.1978456303
 C          2.2891781009        2.5889379291        1.4042689004
 C          0.9971216311        2.9649262494        1.7319767405
 C         -0.0433292191        2.6862487398        0.8599669005
 C          0.1982308107        2.0377601200       -0.3405373196
 C          1.4898617506        1.6716867196       -0.6803897397
 H          1.7103988304        1.1747417197       -1.6111728198
 H         -0.6132078294        1.8020229103       -1.0118363596
 H         -1.0502065690        2.9694504101        1.1236063506
 H          0.8012973112        3.4619306893        2.6684780906
 H          3.1264716310        2.7814691787        2.0560740604
 H          4.1437667401       -0.2966646414        1.2548949698
 H          4.0126280397       -0.9247439908       -2.2813145603
 H          2.1718138693       -2.2020569101       -3.3506213604
 H          0.2380165192       -2.9344200698       -2.0170155305
 C         -0.1887050406       -2.5256893501        0.6762223496
 H          0.1583815095       -2.5500784904        1.7181068596
 C         -0.7596440810       -3.8854141799        0.3316676594
 C          0.0205831887       -5.1105266502        0.6986711692
 C         -1.2403762412       -4.7759163999        1.4360307793
 H         -2.1164923714       -5.3828661397        1.2635696992
 H         -1.1575722910       -4.4093816501        2.4491421994
 H          0.0131606384       -5.9497845301        0.0204417390
 H          0.9603290088       -4.9685640005        1.2111595292
 H         -1.3210670810       -3.9016242596       -0.5925673405
 O         -2.0860053905       -1.9647524292       -1.5060451502
