  62
        -98.94489604
 C          2.0620843506        1.4065490705        0.1094830091
 C          2.0216762406        0.5501181503       -1.0172545007
 C          2.8644448210       -0.6532315194       -0.9409981208
 C          3.6144935214       -0.8739501490        0.1530929690
 C          4.4696746719       -2.0857140486        0.3809419689
 C          3.6883924526       -3.1920347388        1.1037917993
 C          2.3225967825       -3.4920745494        0.4858246497
 H          1.8839455029       -4.3118577895        1.0582098200
 H          1.6738057722       -2.6227229796        0.6145782298
 C          2.3677290522       -3.8757501596       -0.9999339302
 H          1.7225771324       -4.7424466098       -1.1599495799
 H          3.3795757122       -4.1757065792       -1.2749254005
 C          1.8904079115       -2.7790079599       -1.9540247102
 H          1.7502418113       -3.2248575301       -2.9425287601
 H          0.9206337614       -2.3980367002       -1.6239393100
 C          2.8395280810       -1.5857571596       -2.1195855807
 H          3.8451818810       -1.9421418992       -2.3512430310
 H          2.4833317705       -0.9915723598       -2.9661819307
 H          4.2973569429       -4.0979471286        1.1049961092
 H          3.5340635528       -2.8847661387        2.1405718793
 H          5.3217267920       -1.7931479882        0.9968871886
 H          4.8361038918       -2.4508389086       -0.5765990612
 O          3.6414136514       -0.0230566588        1.2093635189
 C          2.8694377910        1.1239684009        1.2174033789
 O          2.9896314011        1.8108605611        2.2512195188
 O          1.3279080402        0.7555980199       -2.0497454305
 C          1.2513245802        2.6911090902        0.2077503792
 C         -0.1944574496        2.3881329097        0.5228952697
 C         -0.7195789394        2.6739093897        1.7781161698
 C         -2.0425508892        2.3909982592        2.0697074903
 C         -2.8663756592        1.8130734488        1.1202780706
 C         -2.3451160895        1.5039583288       -0.1297016395
 C         -1.0205539597        1.7977261393       -0.4229000100
 H         -0.6172286799        1.5435446593       -1.3913945901
 N         -3.1608181396        0.9074673684       -1.1079784592
 S         -4.1149371290       -0.4023396119       -0.6991826187
 O         -4.4909449792       -1.0022136422       -1.9585451585
 O         -5.1977843789        0.0417981779        0.1425541516
 C         -3.0539561383       -1.5071556714        0.2135865511
 C         -3.0554775179       -1.4755290812        1.5934609911
 C         -2.1935077174       -2.3131098408        2.2834074110
 C         -1.3552550473       -3.1683308906        1.5858166008
 C         -1.3723063177       -3.1955044208        0.1995942808
 C         -2.2225701082       -2.3514485412       -0.4955969990
 H         -2.2672573686       -2.3462208513       -1.5731238790
 H         -0.7248669176       -3.8685927606       -0.3388538293
 H         -0.6865800369       -3.8209554903        2.1246575307
 H         -2.1798853971       -2.2965596206        3.3613387309
 H         -3.7338632280       -0.8107048414        2.1014424512
 H         -2.6744255498        0.7323649085       -1.9755613393
 H         -3.9023050291        1.5987581285        1.3270436910
 H         -2.4385412389        2.6264754692        3.0459266804
 H         -0.0783659993        3.1130711800        2.5287907896
 H          1.6709538202        3.2371872405        1.0628007990
 C          1.3832141395        3.5648390801       -1.0247509809
 C          1.0588603990        5.0231711400       -0.9170913510
 C          2.4811892791        4.5815847105       -1.0854528914
 H          2.9693002087        4.7569483805       -2.0324949816
 H          3.1428484993        4.6548178408       -0.2343510616
 H          0.5674342385        5.5048365897       -1.7485111009
 H          0.7562993291        5.3978764500        0.0491126890
 H          1.1284948894        3.0588870099       -1.9462957308
