  62
        -98.94014665
 C         -2.2566451515       -0.9956428124        0.4163637983
 C         -2.2874994513        0.0953610395       -0.4877404493
 C         -3.1821335929        1.2020540525       -0.1172231240
 C         -3.8522924865        1.1669025320        1.0476886631
 C         -4.7858723188        2.2261031688        1.5675058990
 C         -6.2160378868        2.1183119776        1.0206982141
 C         -6.3857416579        2.5272940341       -0.4431198684
 H         -7.4582290410        2.6130659562       -0.6285776504
 H         -5.9491742767        3.5147920244       -0.5958992892
 C         -5.7886597499        1.5362662702       -1.4521318311
 H         -6.5058376952        1.3592518104       -2.2567416496
 H         -5.6168661245        0.5754858672       -0.9611742461
 C         -4.4849246861        2.0008985744       -2.1013337771
 H         -4.6735248575        2.8914462807       -2.7047915893
 H         -4.1340837797        1.2102198190       -2.7694283898
 C         -3.3603924871        2.3146336216       -1.1056906363
 H         -2.4256403904        2.4151210909       -1.6626905040
 H         -3.5645840469        3.2530516404       -0.5906572153
 H         -6.8478671648        2.7663463691        1.6325307630
 H         -6.5651807197        1.0918449674        1.1555510659
 H         -4.3823063423        3.2136473750        1.3420093778
 H         -4.8214302557        2.1041431868        2.6523465028
 O         -3.7321787910        0.1359877809        1.9275673818
 C         -2.9474606260       -0.9669812922        1.6299627063
 O         -2.9334860599       -1.8381747171        2.5238050452
 O         -1.6125937706        0.1575850087       -1.5459357191
 C         -1.4024422037       -2.2232013982        0.1512398619
 C         -0.0239648774       -1.8050085315       -0.3011571529
 C          0.5650648638       -2.2287718521       -1.4843484860
 C          1.8392112372       -1.8060315694       -1.8216443555
 C          2.5497160152       -0.9555536679       -0.9955768305
 C          1.9725984076       -0.5292266240        0.1937675916
 C          0.7018307853       -0.9644908206        0.5350525243
 H          0.2512740170       -0.6322029896        1.4636557600
 N          2.6756860744        0.3540612687        1.0311008757
 S          4.2703080715        0.0045223564        1.4163775070
 O          4.5159267602       -1.4192218718        1.4172870474
 O          4.5172522590        0.6989284278        2.6615905082
 C          5.2073617788        0.7876122236        0.1209723071
 C          4.9930290075        2.1314243790       -0.1148947157
 C          5.7202317371        2.7594892553       -1.1132724030
 C          6.6463641303        2.0382734825       -1.8522032778
 C          6.8525172062        0.6905659046       -1.6005244968
 C          6.1275597058        0.0559021220       -0.6037530947
 H          6.2495055334       -0.9912185865       -0.3766495046
 H          7.5730277988        0.1319308477       -2.1759966465
 H          7.2101307950        2.5299861425       -2.6291956228
 H          5.5618717537        3.8072162152       -1.3123422374
 H          4.2654964772        2.6558210003        0.4821160610
 H          2.1606367404        0.6359694461        1.8521744853
 H          3.5381254714       -0.6179371137       -1.2610146947
 H          2.2825121808       -2.1377316390       -2.7481726298
 H          0.0197599241       -2.8721082939       -2.1547832238
 H         -1.2933298812       -2.7106675050        1.1349736716
 C         -2.0560611730       -3.2465672027       -0.7660690664
 C         -3.5480783753       -3.3487105126       -0.8695247129
 C         -2.7483079279       -2.8567415737       -2.0361578839
 H         -2.6464661586       -3.5045632477       -2.8945700854
 H         -2.7838077457       -1.8076748060       -2.2820645551
 H         -3.9915146748       -4.3317356049       -0.9232567531
 H         -4.1386427123       -2.6351672871       -0.3128415400
 H         -1.5121519400       -4.1862284779       -0.7745708953
