  62
        -98.93712175
 C         -1.2262740527       -1.2166611657       -0.0000862880
 C         -1.7847381993       -0.1804376252        0.7818926649
 C         -2.7729905082        0.6967931911        0.1238482653
 C         -3.0817431001        0.4682002463       -1.1662790424
 C         -4.0784102848        1.1968310442       -2.0284377937
 C         -5.5325090527        0.8186424169       -1.7040289816
 C         -5.8637569348        0.7542985528       -0.2154243246
 H         -6.8851870114        0.3766121824       -0.1197130381
 H         -5.2047935473        0.0300427202        0.2666804487
 C         -5.7868294663        2.0861825553        0.5273664402
 H         -6.4718599682        2.7972613225        0.0601475202
 H         -6.1383390704        1.9088588639        1.5470011136
 C         -4.3999699658        2.7277385801        0.6090840455
 H         -4.4514469851        3.5167297099        1.3650969341
 H         -4.1373073172        3.2148418327       -0.3262755851
 C         -3.2858663739        1.7801097817        1.0418227601
 H         -3.5841096092        1.2755249686        1.9676685073
 H         -2.4050657030        2.3758575048        1.3097022545
 H         -5.7279043950       -0.1679946205       -2.1314038842
 H         -6.1925933572        1.5350452031       -2.1961902135
 H         -3.9305108793        2.2697607582       -1.9467511009
 H         -3.8677426982        0.9106657200       -3.0614717220
 O         -2.5128760986       -0.5439328574       -1.8840632181
 C         -1.5726463508       -1.4004721233       -1.3377014124
 O         -1.1291738481       -2.2540250090       -2.1293265529
 O         -1.4734693474        0.0107349272        1.9871727218
 C         -0.1909195269       -2.1230698232        0.6310125372
 C          1.1610373090       -1.9797799500       -0.0259204037
 C          2.1180000613       -2.9876177258        0.0312968124
 C          3.3765440611       -2.8024800156       -0.5144356517
 C          3.7139327880       -1.6098915705       -1.1301284217
 C          2.7634435818       -0.6033418160       -1.2018681480
 C          1.5065121671       -0.7873357887       -0.6463409238
 H          0.7800474505        0.0147215133       -0.6975030434
 N          3.1146009827        0.6381645618       -1.7942312000
 S          3.9365885055        1.6466560994       -0.7333780604
 O          4.0354021487        2.9293039592       -1.3920679318
 O          5.1773638552        1.0099006411       -0.3752475642
 C          2.8616944336        1.7570310675        0.6845891520
 C          1.8894798100        2.7369929548        0.7075553818
 C          0.9745390578        2.7490058767        1.7477338802
 C          1.0346797266        1.7756325563        2.7329761801
 C          2.0167354641        0.7982755192        2.6939586381
 C          2.9391144843        0.7832082591        1.6602695376
 H          3.7143873688        0.0369025347        1.5935409554
 H          2.0555865989        0.0393779654        3.4586511113
 H          0.3030271291        1.7677465767        3.5245901898
 H          0.2094349422        3.5086111005        1.7812133690
 H          1.8722846908        3.4727549485       -0.0813498386
 H          2.3115883906        1.1393161321       -2.1496966055
 H          4.6944059149       -1.4379831303       -1.5426584660
 H          4.1056814213       -3.5960784453       -0.4573506384
 H          1.8754968765       -3.9224857025        0.5101266722
 H         -0.0910336639       -1.7651234018        1.6678993749
 C         -0.6783856947       -3.5588549672        0.6580531936
 C         -0.3696483099       -4.4500733684        1.8230579230
 C         -1.7617429402       -3.9340135670        1.6234525920
 H         -2.5295633829       -4.6193984796        1.2974123184
 H         -2.1203829990       -3.1614094506        2.2879555586
 H         -0.1812128787       -5.4964418949        1.6350625472
 H          0.2077736465       -4.0344682264        2.6350864747
 H         -0.7157174065       -4.0021370750       -0.3306198204
