  62
        -98.93419722
 C          1.8467855493        1.2710753354       -0.0714347052
 C          2.1391316901       -0.0660100840       -0.4353498491
 C          3.4234871015       -0.5985953301        0.0503969220
 C          4.2093460707        0.1526601281        0.8405764840
 C          5.5104239486       -0.2600364424        1.4766396193
 C          6.6792126938       -0.5508218025        0.5154873897
 C          6.8270330962       -2.0273136528        0.1274423656
 H          7.8892571109       -2.2791592552        0.1045261953
 H          6.3770246675       -2.6420772496        0.9080841706
 C          6.2451033526       -2.4216670531       -1.2334709474
 H          6.1890808936       -3.5118313139       -1.2700955564
 H          6.9314173651       -2.1015676810       -2.0208503155
 C          4.8689351664       -1.8432901221       -1.5627117160
 H          4.9687885798       -0.7873801111       -1.8252905064
 H          4.4914737070       -2.3485668668       -2.4539381051
 C          3.8327693909       -1.9615858502       -0.4280850529
 H          2.9283810146       -2.4483179765       -0.7987760987
 H          4.2288851359       -2.5544990567        0.3950708225
 H          7.5920427870       -0.2409267454        1.0267068658
 H          6.5816627316        0.0702035111       -0.3746009473
 H          5.7868869845        0.5678111343        2.1328764100
 H          5.3312119496       -1.1364723076        2.1038292290
 O          3.8710881725        1.4196203415        1.2053408462
 C          2.7083557214        2.0107335353        0.7449502696
 O          2.5500312478        3.1877737544        1.1262080673
 H         -0.3572346977       -0.4052801654        0.2288887497
 C         -0.9367431904        0.4030416042        0.6500340158
 C         -0.5775794879        1.7143554442        0.3685223829
 C         -1.3376732192        2.7427613634        0.9123154079
 C         -2.4269446845        2.4634959865        1.7199183804
 C         -2.7823806759        1.1557215710        1.9971275145
 C         -2.0296577229        0.1208393044        1.4565448421
 N         -2.3876732476       -1.2172342635        1.7205456061
 S         -3.9412156534       -1.6775813139        1.2907802596
 O         -4.8793279541       -1.0853200642        2.2107518725
 O         -3.9175636147       -3.1215670061        1.2441127394
 C         -4.1753621785       -1.0024381197       -0.3422980160
 C         -3.6849840061       -1.7120995617       -1.4205535098
 C         -3.7949802485       -1.1658029936       -2.6888921606
 C         -4.3770976492        0.0817048015       -2.8543016801
 C         -4.8628960321        0.7821763711       -1.7612919097
 C         -4.7637992322        0.2375880152       -0.4908885563
 H         -5.1362055440        0.7468630918        0.3823505831
 H         -5.3145722039        1.7519717775       -1.8933050170
 H         -4.4503368424        0.5103033774       -3.8410082602
 H         -3.4178729723       -1.7094776132       -3.5400194190
 H         -3.2378399616       -2.6785295965       -1.2502947481
 H         -1.7218038720       -1.8792578041        1.3471156641
 H         -3.6296434472        0.9189524421        2.6203314140
 H         -3.0046773883        3.2725998369        2.1400225703
 H         -1.0611962087        3.7669932227        0.7091623157
 C          0.5973368141        2.0090517948       -0.5272496057
 H          0.8410773607        3.0764741264       -0.4097723850
 C          0.2852508077        1.7804874356       -2.0015367217
 C         -0.8653439777        0.9624897160       -2.4966489614
 C         -0.8992928048        2.4530688875       -2.6307438484
 H         -0.7846893292        2.8918860236       -3.6100452465
 H         -1.5646563105        2.9949663846       -1.9758439039
 H         -1.5185471381        0.5015890472       -1.7729895775
 H         -0.7048142410        0.3613172982       -3.3781464797
 H          1.1922237194        1.7380333492       -2.5967101977
 O          1.3797432035       -0.8029588663       -1.1163939443
