  62
        -98.93777579
 C          1.1805983670        1.6780728768       -0.0755576839
 C          1.9024801442        0.8886565294        0.8486876648
 C          2.9666382416        0.0234892037        0.3038590431
 C          3.2027609092        0.0478934398       -1.0209589062
 C          4.1856945554       -0.7838927246       -1.8004442084
 C          3.6989524766       -2.2290286053       -2.0058673685
 C          3.0601033290       -2.8751882882       -0.7783919745
 H          2.2279045048       -2.2545021627       -0.4399103437
 H          2.6424813053       -3.8366477055       -1.0895569394
 C          4.0117026602       -3.1337977999        0.3875451408
 H          3.4467764965       -3.6580147958        1.1626749324
 H          4.8097634729       -3.8012557042        0.0545735810
 C          4.6497141018       -1.8943542667        1.0172793840
 H          5.4511355207       -1.5103399771        0.3919174080
 H          5.1143122746       -2.2096102867        1.9561869000
 C          3.6712627789       -0.7784708198        1.3711704466
 H          4.1953066382       -0.0445627622        1.9954372874
 H          2.8780978063       -1.1857122861        2.0070675834
 H          4.5427608588       -2.8339267714       -2.3418568714
 H          2.9518776040       -2.2222945489       -2.8037841997
 H          4.2937190082       -0.3112709860       -2.7792101612
 H          5.1571634821       -0.7650516275       -1.3155400288
 O          2.4944197580        0.8422413368       -1.8748045924
 C          1.4682877835        1.6643469474       -1.4399212707
 O          0.9028716678        2.3043405717       -2.3469837718
 O          1.6624659495        0.8933486867        2.0851894926
 C          0.0471796325        2.5347479711        0.4442506875
 C         -1.3044882665        2.0773605339       -0.0538130501
 C         -2.4368754352        2.8682906625        0.1198473463
 C         -3.6844504516        2.4201832618       -0.2762590895
 C         -3.8364201421        1.1758344000       -0.8639166406
 C         -2.7130848187        0.3874524965       -1.0558985872
 C         -1.4662496074        0.8310954617       -0.6398276204
 H         -0.6044838255        0.1907556115       -0.7808590756
 N         -2.8599090509       -0.9007452738       -1.6336026937
 S         -3.3420953318       -2.0612975847       -0.5225098327
 O         -3.2412788116       -3.3338379267       -1.1999140237
 O         -4.6441163331       -1.6967487037       -0.0271778494
 C         -2.1331494801       -1.9580624364        0.7841712035
 C         -0.9920886308       -2.7304776619        0.7019247269
 C         -0.0102399137       -2.5802659008        1.6680576921
 C         -0.1776938469       -1.6527590426        2.6846119307
 C         -1.3261823676       -0.8795709295        2.7480666379
 C         -2.3150150334       -1.0293754345        1.7896689613
 H         -3.2222881038       -0.4471435225        1.8055716597
 H         -1.4440175405       -0.1519671876        3.5344890399
 H          0.5938343156       -1.5175314131        3.4258081744
 H          0.8845408114       -3.1806757083        1.6197185196
 H         -0.8979815893       -3.4389399019       -0.1061806729
 H         -2.0131469233       -1.2223736374       -2.0828926115
 H         -4.8007868120        0.8006866302       -1.1644855403
 H         -4.5503827030        3.0464067848       -0.1259276221
 H         -2.3367737732        3.8409959199        0.5740411333
 H          0.0596833772        2.3940992418        1.5363255827
 C          0.2906773345        4.0027435469        0.1435857649
 C         -0.0431649103        5.0591215117        1.1530301993
 C          1.3881142130        4.7173461606        0.8726574183
 H          1.9964297815        5.4228385962        0.3270376875
 H          1.9335067956        4.1555914630        1.6171660430
 H         -0.4217391325        6.0064075964        0.7997304810
 H         -0.4546899236        4.7415509400        2.0994319154
 H          0.1566125000        4.2390534677       -0.9057619593
