  62
        -98.93545582
 C         -2.7248666004       -0.9511384887       -0.2401871601
 C         -2.2109461002        0.0876913911       -1.0507637202
 C         -2.7138311598        1.4490196013       -0.7817775700
 C         -3.6589179995        1.6381200715        0.1568672902
 C         -4.3921511390        2.8851407118        0.6060824704
 C         -3.9040843787        4.2692228416        0.1878681703
 C         -2.5709373685        4.6900148212        0.8084360500
 H         -2.2469309083        5.6182648611        0.3333068499
 H         -2.7344285882        4.8985478412        1.8687624100
 C         -1.4433988588        3.6642546409        0.7162942797
 H         -0.5722046586        4.0687420406        1.2392011296
 H         -1.7293404689        2.7516948809        1.2443556098
 C         -0.9966130092        3.2963259608       -0.6968342004
 H         -0.1174956394        2.6514287505       -0.5977887906
 H         -0.6929353190        4.1985128807       -1.2322038404
 C         -2.0404762496        2.5522631111       -1.5460135002
 H         -2.7695179995        3.2403287913       -1.9661204600
 H         -1.5188742499        2.0751728409       -2.3807250403
 H         -3.8641046089        4.3404970816       -0.8950221097
 H         -4.6623326884        4.9818018218        0.5234771404
 H         -5.4236270292        2.7618325121        0.2579079506
 H         -4.4284574988        2.8327827317        1.6989016704
 O         -4.1727660697        0.5938022717        0.8716911703
 C         -3.6983526501       -0.6949529885        0.7286036501
 O         -4.2261987502       -1.5203754283        1.5007924302
 H          0.1523504993       -1.3913625596       -1.1253462107
 C          0.2321860494       -1.8908756796       -0.1715545007
 C         -0.8945291207       -2.4791898493        0.3851641495
 C         -0.7761802606       -3.0866927693        1.6300136595
 C          0.4362364395       -3.0973179797        2.2980513592
 C          1.5526244496       -2.4934678201        1.7463684890
 C          1.4406255695       -1.8783748700        0.5072346090
 N          2.5657207996       -1.2240924703       -0.0568250912
 S          2.9781646502        0.2238032295        0.7177757587
 O          3.1728011604       -0.0483293405        2.1193986687
 O          2.0213540904        1.2613599098        0.3955851990
 C          4.5450796101        0.5717809891       -0.0563815516
 C          4.6262194002        1.5413370291       -1.0363684416
 C          5.8477609701        1.7734893787       -1.6495648319
 C          6.9588135100        1.0327684584       -1.2766443421
 C          6.8605515999        0.0608878884       -0.2916876921
 C          5.6429514800       -0.1747960013        0.3257950882
 H          5.5199157599       -0.9141671512        1.0994815282
 H          7.7272451398       -0.5123128019       -0.0045145423
 H          7.9076269900        1.2152086981       -1.7560302023
 H          5.9268247902        2.5292514287       -2.4144864819
 H          3.7368293503        2.0956241693       -1.2910935114
 H          2.3837415394       -0.9923618703       -1.0267011112
 H          2.4929865697       -2.4676593003        2.2714778088
 H          0.5105352296       -3.5735023898        3.2641782792
 H         -1.6507213807       -3.5320898691        2.0828405897
 C         -2.2317893308       -2.3901844289       -0.3115425302
 H         -2.9539494009       -2.9797983887        0.2685029099
 C         -2.1841103013       -2.9416392489       -1.7223014302
 C         -2.1425400318       -4.4263722889       -1.9176394003
 C         -3.3809064716       -3.6583909585       -2.2675932000
 H         -3.6302685418       -3.5239013784       -3.3094078099
 H         -4.2419826315       -3.7554155183       -1.6222142098
 H         -1.5396387821       -4.8233110690       -2.7197584904
 H         -2.1641653718       -5.0464983689       -1.0342252303
 H         -1.6219397213       -2.3250948790       -2.4104865003
 O         -1.3712958705       -0.0830564891       -1.9755522203
