  62
        -98.94655009
 C         -1.0895575476       -1.8051059981       -0.2240471040
 C         -1.2263434896       -0.6146337993       -0.9820937882
 C         -2.5490968294        0.0303950052       -0.9330019527
 C         -3.5327508015       -0.5190435603       -0.2001501350
 C         -4.9110665324        0.0524433135       -0.0376317570
 C         -4.9963432847        0.9769130108        1.1839987149
 C         -3.8859138035        2.0260401749        1.2471821420
 H         -2.9250845415        1.5323675083        1.4137891530
 H         -4.0764504828        2.6498972342        2.1235841644
 C         -3.7786359113        2.9157536244        0.0012869064
 H         -3.6495386176        3.9512853863        0.3235450413
 H         -4.7045823907        2.8662001771       -0.5739502031
 C         -2.5922693541        2.5824355079       -0.9055218632
 H         -1.6857305574        2.5200837755       -0.2970110087
 H         -2.4624808719        3.4089249959       -1.6108329009
 C         -2.7249101473        1.2935911703       -1.7277778522
 H         -1.9246859615        1.2898901419       -2.4738294679
 H         -3.6838897089        1.2896275575       -2.2511638946
 H         -4.9398871396        0.3650253753        2.0873136584
 H         -5.9675137054        1.4755369804        1.1714934890
 H         -5.1791943330        0.6000435576       -0.9391634598
 H         -5.6105139711       -0.7748535777        0.0959150477
 O         -3.3680181813       -1.6624433497        0.5131931558
 C         -2.1495926500       -2.3191492325        0.5274594697
 O         -2.1366939255       -3.3512184561        1.2304355634
 H          0.6829042499       -0.0086030096        0.5110305463
 C          1.2910489008       -0.6921445974        1.0788347769
 C          1.1523837385       -2.0584641414        0.8947844788
 C          1.9393984088       -2.9169115180        1.6551915300
 C          2.8429534615       -2.4135411361        2.5733328984
 C          2.9868166228       -1.0484598088        2.7465882214
 C          2.1996848942       -0.1821798533        1.9954889550
 N          2.3113936184        1.2015158926        2.1516234509
 S          1.6817143168        2.2946462667        1.0684494922
 O          2.3156526086        3.5456533163        1.4371174851
 O          0.2413425625        2.2912429870        1.1379418888
 C          2.2415449516        1.8263112589       -0.5594584124
 C          3.4199371681        1.1248225275       -0.7162482881
 C          3.8407874517        0.8023578095       -1.9961283975
 C          3.0880654902        1.1940733122       -3.0919844540
 C          1.9154870585        1.9103780484       -2.9178728041
 C          1.4851897416        2.2284231074       -1.6403465026
 H          0.5670107065        2.7651097183       -1.4647056103
 H          1.3258757052        2.2110041002       -3.7689746150
 H          3.4146604778        0.9357346136       -4.0872477147
 H          4.7515714993        0.2414813370       -2.1329167240
 H          3.9900889418        0.8238105004        0.1475362287
 H          3.0990895055        1.5454510641        2.6773182978
 H          3.6922021975       -0.6539189608        3.4614240839
 H          3.4449217097       -3.0901501029        3.1603829545
 H          1.8304811411       -3.9837727112        1.5321554578
 C          0.2001487148       -2.6034324429       -0.1442858646
 H         -0.0930868254       -3.6152755389        0.1689885018
 C          0.9266234356       -2.7027289776       -1.4744300817
 C          1.7777425268       -3.8993659142       -1.7683144867
 C          0.4759245380       -3.7105405778       -2.4866477451
 H          0.4903827391       -3.4328888970       -3.5295815711
 H         -0.3527077273       -4.3500420897       -2.2177195965
 H          1.8312301353       -4.6778667440       -1.0228062912
 H          2.6940685517       -3.7531737203       -2.3187892595
 H          1.2603223534       -1.7416236335       -1.8441313525
 O         -0.3115987686       -0.1002766905       -1.6768856784
