  62
        -98.92974520
 C         -2.5273381563       -1.3024709116        0.1242448669
 C         -2.5700981141       -0.0930420624       -0.6075659440
 C         -3.9065493491        0.5007461445       -0.8346609216
 C         -4.9910408922       -0.1211554226       -0.3382309669
 C         -6.4316544712        0.3099091110       -0.4117397956
 C         -6.7586055535        1.4470230754        0.5698824984
 C         -5.7197872252        2.5640514933        0.6289291863
 H         -4.7503251024        2.1398431717        0.8976270380
 H         -6.0090446195        3.2440825398        1.4346634478
 C         -5.5769659636        3.3882213671       -0.6483723093
 H         -4.8686669058        4.1933446325       -0.4365994996
 H         -6.5390433475        3.8469900953       -0.8874663737
 C         -5.0800758137        2.6315132908       -1.8818053107
 H         -4.8020137346        3.3789739289       -2.6306594773
 H         -5.8747538330        2.0353075836       -2.3221399880
 C         -3.8420279561        1.7713893239       -1.6476084960
 H         -3.0612259632        2.3847081662       -1.1831109901
 H         -3.4337738568        1.4778698707       -2.6224588926
 H         -6.8394147353        1.0156862479        1.5707164467
 H         -7.7309661216        1.8645377455        0.3033774211
 H         -6.6866130228        0.5899339325       -1.4294393159
 H         -7.0335075916       -0.5619006615       -0.1456038514
 O         -4.8988004258       -1.2767006831        0.3813522335
 C         -3.6870196462       -1.8828555160        0.6424939910
 O         -3.7674297572       -2.9155478505        1.3382010280
 H          1.2136101897       -1.2454889306       -0.6309466963
 C          0.9854270639       -0.7352405970        0.2918854686
 C         -0.2083037703       -0.9933196109        0.9453047179
 C         -0.4858929930       -0.3011757076        2.1212544502
 C          0.4018451301        0.6324881421        2.6194650777
 C          1.5880045570        0.8965096515        1.9575070296
 C          1.8760167942        0.2108881054        0.7859620934
 N          3.0684009425        0.4899051372        0.0942292009
 S          4.4794262442        0.6458745640        1.0072580678
 O          4.5658038674       -0.4265797279        1.9739102862
 O          4.5348216755        1.9818330320        1.5461912793
 C          5.7245181630        0.4504745959       -0.2526439414
 C          6.0555513984        1.5402781435       -1.0354168813
 C          7.0040322278        1.3837149384       -2.0335193328
 C          7.6015446239        0.1476763203       -2.2315570552
 C          7.2597753385       -0.9363900298       -1.4371109888
 C          6.3110971906       -0.7871029604       -0.4376909532
 H          6.0213350837       -1.5992438832        0.2097439150
 H          7.7284316255       -1.8950028028       -1.5914975860
 H          8.3403881587        0.0289916356       -3.0083148555
 H          7.2745176621        2.2243932758       -2.6518371460
 H          5.5715764323        2.4828469744       -0.8397572137
 H          3.2053057637       -0.1265164865       -0.6950033974
 H          2.2915720452        1.6215666802        2.3342356778
 H          0.1701487664        1.1626486887        3.5315594102
 H         -1.4155852375       -0.5022984734        2.6376581418
 C         -1.2179480057       -2.0003277352        0.4506757191
 H         -1.4598925888       -2.6682431602        1.2942484580
 C         -0.6892238647       -2.8918087583       -0.6630485291
 C         -1.6271947308       -3.5663104730       -1.6180560529
 C         -0.7138072281       -2.4835298817       -2.1043754946
 H          0.1208918262       -2.7644784712       -2.7303722093
 H         -1.1347062246       -1.5199533336       -2.3429440064
 H         -2.6805777551       -3.3461807760       -1.5225888808
 H         -1.4194997385       -4.5859903961       -1.9058168037
 H          0.1643089542       -3.4784192008       -0.3357814546
 O         -1.5502608718        0.4868911131       -1.0621812114
