  62
        -98.93806861
 C          1.9709688720        1.3513766125        0.3615484861
 C          2.6902714522        0.7919566362       -0.7209534693
 C          3.8864703151        0.0056674586       -0.3697178719
 C          4.2177101885       -0.1555255053        0.9226605918
 C          5.4095112369       -0.8748154735        1.5032961624
 C          5.7852442083       -2.2315429170        0.8912370623
 C          4.6020240044       -3.0595709180        0.3688065302
 H          4.6648909785       -4.0681852588        0.7818191645
 H          3.6600648890       -2.6269138851        0.7109563335
 C          4.5831833584       -3.1782916568       -1.1571964123
 H          5.6007686774       -3.3685096723       -1.5055283600
 H          3.9758926825       -4.0434623038       -1.4344085140
 C          4.0164486961       -1.9708452979       -1.9033485493
 H          4.1690783722       -2.1351674000       -2.9727277293
 H          2.9364222085       -1.9079228677       -1.7420284365
 C          4.6250518276       -0.6113604278       -1.5221961930
 H          5.6896185196       -0.6989529095       -1.3190996657
 H          4.4849670562        0.0666810815       -2.3683505747
 H          6.3077349383       -2.7935998853        1.6671745619
 H          6.4968481725       -2.0813558767        0.0806105279
 H          6.2722783216       -0.2050150096        1.4442140372
 H          5.1748330949       -1.0039258244        2.5626599334
 O          3.4754898572        0.3766122614        1.9355863789
 C          2.3392559629        1.1264800700        1.6862777290
 O          1.7486485974        1.5236861351        2.7124578130
 H         -0.2038861368       -0.1230744550        0.9960084065
 C         -0.6804008914        0.1406425965        0.0592473185
 C         -0.3196966874        1.3278193782       -0.5681316876
 C         -0.9486233939        1.6652870656       -1.7582341901
 C         -1.8873877717        0.8154854281       -2.3195902483
 C         -2.2286802635       -0.3737388308       -1.7036584159
 C         -1.6225526670       -0.7089270746       -0.4984603990
 N         -1.9839630405       -1.9010079289        0.1514992864
 S         -3.6127027852       -2.2768257829        0.2424865795
 O         -3.7531950715       -3.0654913328        1.4466251061
 O         -4.0300534586       -2.9181733808       -0.9795172788
 C         -4.4512216278       -0.7109767273        0.4157903156
 C         -5.3786105954       -0.3191437263       -0.5280045090
 C         -5.9967259409        0.9133039348       -0.3895061003
 C         -5.6750572273        1.7301332427        0.6830305181
 C         -4.7442234948        1.3204406872        1.6256676738
 C         -4.1250570805        0.0882844063        1.4936019397
 H         -3.3998074402       -0.2587564990        2.2125641254
 H         -4.4947616624        1.9561894816        2.4601308688
 H         -6.1519405555        2.6918500382        0.7873623518
 H         -6.7224330434        1.2333762970       -1.1195567462
 H         -5.5954400100       -0.9839354663       -1.3482042709
 H         -1.5222983281       -2.0429968306        1.0374471661
 H         -2.9443466653       -1.0529531182       -2.1377039213
 H         -2.3576479581        1.0825952393       -3.2534001664
 H         -0.6953427661        2.5867449545       -2.2550619593
 C          0.7269842381        2.1839218736        0.1035986827
 H          0.3445868179        2.4677918655        1.0948407801
 C          1.0760385776        3.4420361316       -0.6618992673
 C          0.2103004722        4.6586102433       -0.5377995077
 C          1.5674102457        4.6365237950        0.0971227787
 H          2.3529809967        5.2361989577       -0.3375488074
 H          1.6306551179        4.5503375240        1.1724167788
 H          0.0640816041        5.2790583159       -1.4088647045
 H         -0.6516639342        4.5943834056        0.1086748890
 H          1.5384584719        3.2346711310       -1.6195479527
 O          2.3625859895        0.9471112723       -1.9250120705
