  62
        -98.93597946
 C          2.1040501096        0.9526308956        0.2264909466
 C          2.9852571932        0.3515885646        1.1576999913
 C          3.7785366880       -0.7966696869        0.6849086998
 C          3.5944000187       -1.2513106784       -0.5682677970
 C          4.2198677699       -2.4142981680       -1.3100342253
 C          5.4676951675       -3.1064756344       -0.7676683202
 C          6.7330256513       -2.2491024061       -0.7849513739
 H          7.5288141443       -2.8048930817       -0.2844376657
 H          7.0352110002       -2.0983833393       -1.8243523965
 C          6.6061700653       -0.8718591490       -0.1385919899
 H          7.5728960014       -0.3694350440       -0.2300530803
 H          5.8797220811       -0.2731998828       -0.6921831672
 C          6.2233694014       -0.8763902278        1.3400765074
 H          6.3239279671        0.1477553031        1.7095817312
 H          6.9214674352       -1.5027028905        1.8986465342
 C          4.7903324541       -1.3416885997        1.6515303150
 H          4.7282574284       -2.4262010055        1.7021705110
 H          4.5141941373       -0.9514214707        2.6355566222
 H          5.2805439281       -3.4919027517        0.2303237859
 H          5.6467793844       -3.9717576691       -1.4117187737
 H          3.4246094757       -3.1613827002       -1.4125736459
 H          4.4251516386       -2.0461093595       -2.3203967972
 O          2.6780816056       -0.6859655957       -1.4073749729
 C          1.9191112423        0.4198765009       -1.0491863244
 O          1.1429211180        0.8054758712       -1.9418668782
 H         -0.2414761823        0.1470854180        1.4840595716
 C         -0.8015009798        0.8272810440        0.8526133588
 C         -0.1613736644        1.9484837000        0.3377777653
 C         -0.8839977102        2.8043105146       -0.4816780248
 C         -2.2088894875        2.5347800500       -0.7783991500
 C         -2.8410342244        1.4179574646       -0.2643787792
 C         -2.1259418720        0.5521285193        0.5529723078
 N         -2.7607375072       -0.5832422599        1.0894958615
 S         -3.5915918048       -1.5965331450        0.0377625224
 O         -3.6049859323       -2.8854832231        0.6967196393
 O         -3.0353752402       -1.5625740370       -1.2948401794
 C         -5.2446641386       -0.9344238330        0.0326376731
 C         -5.8446394617       -0.5911691810       -1.1629855682
 C         -7.1350713898       -0.0847073607       -1.1438911944
 C         -7.7988977618        0.0673950626        0.0637580475
 C         -7.1830298726       -0.2848131490        1.2556391177
 C         -5.8938365180       -0.7926760049        1.2435438522
 H         -5.3809109509       -1.0816244433        2.1455560710
 H         -7.7024650732       -0.1650640015        2.1926819222
 H         -8.8022617518        0.4628522292        0.0759501921
 H         -7.6151425478        0.1889760050       -2.0696920106
 H         -5.2862671805       -0.7213005031       -2.0765675392
 H         -2.1647188965       -1.1266192290        1.6976138928
 H         -3.8703328419        1.2023528457       -0.5001245681
 H         -2.7567613214        3.2037662640       -1.4243873047
 H         -0.4027479262        3.6670077004       -0.9117473349
 C          1.2908679884        2.1475465972        0.6917373520
 H          1.3759087253        2.1200688119        1.7913764967
 C          1.8451025712        3.4939510195        0.2520654795
 C          3.3104157637        3.6761573134       -0.0045207637
 C          2.3365598040        3.7476781029       -1.1403262986
 H          2.1398760884        4.7127769505       -1.5841078642
 H          2.2973129421        2.9292920287       -1.8418232470
 H          3.7812095333        4.5880764357        0.3307415881
 H          3.9438336392        2.8041455649        0.0715787887
 H          1.3398809692        4.3178803672        0.7466061381
 O          3.0994143627        0.7511103241        2.3478465630
