  62
        -98.94373834
 C         -1.4881656532       -1.2560782336        0.7166382832
 C         -2.5485119529       -1.1701594231       -0.2177667626
 C         -3.4315842293       -0.0006101427       -0.0750975364
 C         -3.1460883956        0.9410793681        0.8418764196
 C         -3.9217971321        2.2113092063        1.0375064586
 C         -3.3853224699        3.3469936978        0.1540783743
 C         -3.1925736007        2.9563076507       -1.3109599717
 H         -2.8262169591        3.8394173346       -1.8390590022
 H         -2.4143859070        2.1925566414       -1.3815952473
 C         -4.4592847541        2.4332067891       -2.0011979710
 H         -4.5474719825        2.9058222952       -2.9817224363
 H         -5.3412041178        2.7159156439       -1.4252071631
 C         -4.4665968777        0.9210125372       -2.2297172979
 H         -5.2943665376        0.6816012400       -2.9026265070
 H         -3.5424508247        0.6202188805       -2.7297056400
 C         -4.6372736386        0.0609898898       -0.9714613527
 H         -5.5109834980        0.4014524813       -0.4115258853
 H         -4.8187724359       -0.9669819080       -1.2987315824
 H         -2.4217844300        3.6741979494        0.5507133486
 H         -4.0786039077        4.1876794287        0.2170185298
 H         -4.9696346447        2.0266383428        0.8074944774
 H         -3.8380100380        2.5068857662        2.0845980026
 O         -2.0786198955        0.8580383456        1.6761048887
 C         -1.2396503379       -0.2408856711        1.6464212414
 O         -0.3187916259       -0.2067291363        2.4860484625
 H          1.9696424214       -1.5162469702        1.2894506799
 C          1.8201719381       -1.6374999428        0.2247218095
 C          0.6016848701       -2.1137320771       -0.2391227574
 C          0.4090133708       -2.2271718635       -1.6118185190
 C          1.4173229519       -1.8768669648       -2.4921569292
 C          2.6330874366       -1.4054166195       -2.0262358681
 C          2.8295850047       -1.2805045886       -0.6581293786
 N          4.0580818135       -0.7663895200       -0.1796812871
 S          4.2943198746        0.8698622821       -0.4581850808
 O          4.3170311720        1.0965850312       -1.8800918331
 O          5.4917325786        1.2226659943        0.2691700486
 C          2.8746584981        1.6630694501        0.2725882961
 C          2.9563524901        2.1132185184        1.5748840497
 C          1.8302474452        2.6592678643        2.1678533955
 C          0.6444899001        2.7352450204        1.4550350768
 C          0.5786696855        2.2757664246        0.1496624898
 C          1.7010528509        1.7301020658       -0.4506562517
 H          1.6827044267        1.3604730086       -1.4635620262
 H         -0.3482139055        2.3280537606       -0.3996003546
 H         -0.2380644022        3.1402528764        1.9246704536
 H          1.8742452565        3.0124606703        3.1854994091
 H          3.8982907485        2.0348651440        2.0942756687
 H          4.1972297269       -0.9433803279        0.8062305018
 H          3.4204052697       -1.1078527652       -2.6995096776
 H          1.2545123701       -1.9682937539       -3.5555201805
 H         -0.5468289285       -2.5638886181       -1.9822854671
 C         -0.4982547309       -2.4120831468        0.7496537498
 H         -0.0546875455       -2.3931241444        1.7542626793
 C         -1.1260936813       -3.7726897446        0.5344201868
 C         -0.3632600979       -4.9907171352        0.9575444475
 C         -1.5787392369       -4.5636493959        1.7231258033
 H         -2.4788823007       -5.1533385273        1.6359581958
 H         -1.4380023501       -4.1260530972        2.7010164385
 H          0.6027673930       -4.8420315741        1.4165146205
 H         -0.4257416022       -5.8764101793        0.3442869358
 H         -1.7287923748       -3.8414908755       -0.3603537016
 O         -2.7736557489       -2.0119701994       -1.1260376025
