  62
        -98.94173626
 C          2.2544320806        0.7534466110        0.0754547002
 C          3.4316350356        1.0475618545        0.8137130923
 C          4.3656865015       -0.0646854372        1.0280844245
 C          4.0392665516       -1.2895528569        0.5786239970
 C          4.9129889039       -2.5047780444        0.6873091181
 C          5.8105270180       -2.6555378623       -0.5490084385
 C          6.5553026429       -1.3764411717       -0.9316764227
 H          7.1783684656       -1.6100821972       -1.7977033864
 H          5.8302974077       -0.6245725053       -1.2519874486
 C          7.4306808345       -0.7926594588        0.1861519805
 H          7.6178866186       -1.5532800149        0.9449087694
 H          8.3973797141       -0.5120952891       -0.2372035351
 C          6.8569634633        0.4584830378        0.8540210277
 H          6.5826848465        1.1889053099        0.0885464398
 H          7.6432012156        0.9073234791        1.4666910713
 C          5.6423854780        0.2323368164        1.7631939513
 H          5.8642410816       -0.5574265194        2.4837517676
 H          5.4615155387        1.1598612555        2.3141986383
 H          6.5294474560       -3.4543230095       -0.3580577828
 H          5.1868301602       -2.9550348665       -1.3946491426
 H          5.5230278104       -2.4277028038        1.5853008643
 H          4.2706185193       -3.3832931256        0.7693021460
 O          2.8795438074       -1.5487434498       -0.0742149397
 C          1.9623557256       -0.5417852206       -0.3572388729
 O          0.9654491802       -0.9448318533       -0.9855769891
 H         -0.8023924266        1.0040215269       -1.6793298463
 C         -1.0484238164        1.0514884037       -0.6299726639
 C         -0.0999781714        1.4970503419        0.2760722461
 C         -0.4252563591        1.5151879966        1.6290310583
 C         -1.6719120332        1.1022646206        2.0596355015
 C         -2.6149337135        0.6514035976        1.1522991588
 C         -2.2916307716        0.6090995905       -0.1968282701
 N         -3.2347673862        0.1421601739       -1.1267321976
 S         -4.1394347453       -1.2212399078       -0.7581298536
 O         -3.4432344451       -2.1214719385        0.1311073903
 O         -4.5402473446       -1.7619818601       -2.0392583597
 C         -5.5786695446       -0.5537285201        0.0549829021
 C         -5.9783393807       -1.0627229139        1.2750517227
 C         -7.1076375140       -0.5377302657        1.8841785641
 C         -7.8150519939        0.4809572189        1.2647803240
 C         -7.4027988350        0.9792619442        0.0378360529
 C         -6.2754169221        0.4580689496       -0.5764515020
 H         -5.9241083641        0.8152703272       -1.5299036307
 H         -7.9554467830        1.7714796771       -0.4409665781
 H         -8.6927110413        0.8885752991        1.7410802300
 H         -7.4293502123       -0.9248924384        2.8376748635
 H         -5.3939904948       -1.8516317253        1.7218492678
 H         -2.8734905398        0.0851248359       -2.0681577721
 H         -3.5828225177        0.3116425793        1.4826436887
 H         -1.9125005279        1.1257851719        3.1116927815
 H          0.3174688721        1.8477964252        2.3411068593
 C          1.2849660361        1.9004682882       -0.1577831277
 H          1.6378492808        2.6922918288        0.5225212147
 C          1.3194892407        2.4908296971       -1.5597497309
 C          2.6240679820        2.6622513729       -2.2773828679
 C          1.6104586982        1.6849917195       -2.7886552488
 H          1.0764950175        1.9304825055       -3.6955391688
 H          1.8030393843        0.6300263100       -2.6718046320
 H          2.7937804565        3.5709256590       -2.8348080787
 H          3.5086063813        2.2725580899       -1.7947539168
 H          0.5982950331        3.2951162944       -1.6705919573
 O          3.6884205003        2.1917353646        1.2736367883
