  62
        -98.94170218
 C         -2.7855631855       -0.5668463817       -0.2955201155
 C         -2.1158190100        0.3403272197       -1.1527605998
 C         -2.3509576138        1.7680207946       -0.8904248599
 C         -3.1969185892        2.1354288641        0.0876031478
 C         -3.4900729380        3.5513198684        0.4884684998
 C         -2.5526816924        4.0187071018        1.6103180810
 C         -1.0733606296        3.7395810752        1.3417675787
 H         -0.5073393016        4.1515818832        2.1804838103
 H         -0.8977968072        2.6604446569        1.3451653078
 C         -0.5407570771        4.3291566991        0.0286284532
 H          0.4285218067        4.7919840525        0.2250951799
 H         -1.2115992324        5.1129923178       -0.3264115338
 C         -0.3238253017        3.2993651326       -1.0819888830
 H          0.2553625466        2.4601109904       -0.6853030400
 H          0.2717437268        3.7703830877       -1.8691334633
 C         -1.5994253220        2.7543937338       -1.7388547587
 H         -2.2455687883        3.5845120938       -2.0319588922
 H         -1.3054222392        2.2115666952       -2.6418140415
 H         -2.6996217747        5.0903072457        1.7579535661
 H         -2.8336415742        3.5063555903        2.5334472162
 H         -3.3850838837        4.1983384632       -0.3801154350
 H         -4.5203052678        3.6000764656        0.8453580282
 O         -3.8618991173        1.2381713316        0.8591333950
 C         -3.6465850159       -0.1198811022        0.7123580373
 O         -4.2850283629       -0.8261011570        1.5188356491
 H         -0.0689007545       -1.4501336337       -1.1307314419
 C         -0.0729067929       -1.9751052080       -0.1870592043
 C         -1.2795557883       -2.3996432318        0.3508067140
 C         -1.2635193508       -3.0480532387        1.5801467260
 C         -0.0720297122       -3.2523717458        2.2552657291
 C          1.1252579508       -2.8010695910        1.7278463203
 C          1.1160353295       -2.1524687102        0.5010472728
 N          2.3276058116       -1.6294803636       -0.0254052110
 S          2.7880642499       -0.2144831616        0.7883586238
 O          3.0646867585       -0.5590555632        2.1602219019
 O          1.8073464052        0.8291585108        0.5803709553
 C          4.3066307813        0.1791594414       -0.0568304544
 C          5.4327739831       -0.5639744748        0.2408621874
 C          6.6104120441       -0.2948881649       -0.4375398216
 C          6.6411808540        0.7059890685       -1.3975663064
 C          5.5024176897        1.4429292006       -1.6850340170
 C          4.3203124915        1.1774651088       -1.0110441456
 H          3.4114239906        1.7270998374       -1.1990351704
 H          5.5290400078        2.2212771036       -2.4306521068
 H          7.5587938738        0.9140629551       -1.9248383628
 H          7.4983922891       -0.8649519455       -0.2169429716
 H          5.3614119011       -1.3262325850        0.9986376950
 H          2.1981526769       -1.3753211765       -0.9985314994
 H          2.0541401902       -2.9165038330        2.2616077069
 H         -0.0779406668       -3.7548414811        3.2108474242
 H         -2.1981906622       -3.3674058857        2.0187516604
 C         -2.5790185878       -2.0755963618       -0.3472170547
 H         -3.3969090229       -2.5094853771        0.2430172257
 C         -2.6381815283       -2.6525888198       -1.7469216052
 C         -2.9055364554       -4.1172392229       -1.9136208777
 C         -3.9544472479       -3.1157436227       -2.2913303310
 H         -4.1633085180       -2.9536937130       -3.3380456691
 H         -4.8210153406       -3.0181033604       -1.6534572051
 H         -3.0620449469       -4.7011392326       -1.0191770682
 H         -2.3931555445       -4.6474315647       -2.7015223923
 H         -1.9550173145       -2.1812844554       -2.4403076205
 O         -1.3555238225        0.0033259099       -2.1006856740
