  62
        -98.93994030
 C         -2.5031072402       -1.1925146900       -0.0765571297
 C         -2.5185978602        0.0033922598       -0.8342408700
 C         -3.8367211203        0.6308288697       -1.0101263004
 C         -4.9232767503        0.0478490797       -0.4720235905
 C         -6.3107447503        0.6182977496       -0.5129497509
 C         -6.5812581406        1.5017639899        0.7134382988
 C         -5.4829433108        2.5281974601        0.9920039887
 H         -5.7957524310        3.1103144503        1.8615590185
 H         -4.5654906908        2.0039326502        1.2697105491
 C         -5.1878423107        3.4766126798       -0.1783781115
 H         -6.0187047005        3.4632129295       -0.8846607016
 H         -5.1063551108        4.4947531399        0.2078500582
 C         -3.8855942705        3.1780163397       -0.9235580212
 H         -3.0622605306        3.0981769300       -0.2089025910
 H         -3.6674275705        4.0239881295       -1.5807997314
 C         -3.8905085402        1.9133326194       -1.7914168408
 H         -4.7562170301        1.9249794492       -2.4565723710
 H         -2.9842995201        1.9276052193       -2.4041751507
 H         -7.5325633707        2.0158202698        0.5650230985
 H         -6.6762068907        0.8566611901        1.5899263190
 H         -6.4329732402        1.1979300293       -1.4256893310
 H         -7.0232007803       -0.2081433405       -0.5189163407
 O         -4.8707505103       -1.1148104101        0.2276292199
 C         -3.6635615003       -1.7535112699        0.4566186303
 O         -3.7530145703       -2.7942476797        1.1393381706
 H          1.3432536398       -0.9583587197       -0.4546861591
 C          0.9706513296       -0.5796199395        0.4817442008
 C         -0.2746964804       -0.9589869495        0.9537437306
 C         -0.7158397707       -0.4409684091        2.1697081704
 C          0.0692268391        0.4377380611        2.8894706303
 C          1.3125702191        0.8164437611        2.4137539004
 C          1.7596281294        0.3101656508        1.1992387806
 N          2.9977680194        0.7148451808        0.6767953107
 S          3.9062303397       -0.3549931394       -0.2561900088
 O          3.3763220399       -0.3931100898       -1.5953560289
 O          4.0250648497       -1.6275528692        0.4208665816
 C          5.4723958496        0.4978369707       -0.2571722588
 C          5.6238784497        1.5870031805       -1.0948692291
 C          6.8240589596        2.2793632806       -1.0832025091
 C          7.8471897495        1.8736913310       -0.2387748288
 C          7.6812869995        0.7777475112        0.5944169115
 C          6.4824835795        0.0815900111        0.5889701115
 H          6.3105004895       -0.7797786788        1.2141196017
 H          8.4796971094        0.4634649715        1.2470889218
 H          8.7805883794        2.4140706411       -0.2322693287
 H          6.9571911096        3.1306024405       -1.7312476793
 H          4.8038084798        1.8592787603       -1.7389204893
 H          3.5723683993        1.1980257910        1.3534985507
 H          1.9262031090        1.5063240513        2.9730299203
 H         -0.2864328811        0.8295780114        3.8307227701
 H         -1.6887320207       -0.7388299991        2.5383938603
 C         -1.1870686302       -1.8980024398        0.2020558208
 H         -1.4276483403       -2.7427608596        0.8642108910
 C         -0.5859678100       -2.4398523301       -1.0766399290
 C          0.3882511601       -3.5765451700       -1.0198501985
 C         -0.9921463097       -3.7981255402       -1.5597288987
 H         -1.1126609095       -3.9525898006       -2.6214367786
 H         -1.6959078498       -4.3505661601       -0.9540046986
 H          1.2219582903       -3.5740839901       -1.7063207584
 H          0.6269400800       -3.9809368497       -0.0474467683
 H         -0.4255502699       -1.6717447803       -1.8248721192
 O         -1.4896741602        0.5264329798       -1.3365977200
