  62
        -98.93389291
 C         -2.2391635403       -0.8951843888        0.1657826041
 C         -2.4734121306        0.2791240434        0.9168118306
 C         -3.2498403873        1.3435693233        0.2581247758
 C         -3.6638965356        1.1677666170       -1.0108584705
 C         -4.4273189732        2.0833222340       -1.9451764928
 C         -5.1569415952        3.3137496261       -1.4121291679
 C         -6.3539705029        3.0077205768       -0.5127690580
 H         -6.7356350553        3.9524872229       -0.1195087376
 H         -7.1418305481        2.5592376095       -1.1231758408
 C         -6.0781724505        2.0600587074        0.6519490042
 H         -7.0114184286        1.9326423524        1.2072502031
 H         -5.7973399849        1.0774524604        0.2672378214
 C         -5.0113238973        2.5303372118        1.6387719446
 H         -5.0346095386        1.8515040484        2.4955235541
 H         -5.2590540197        3.5307607950        1.9987236784
 C         -3.5699706823        2.5454167516        1.0998633277
 H         -3.3607775499        3.4626956356        0.5546300673
 H         -2.8895398450        2.5099876587        1.9556731215
 H         -4.4605623690        3.9761227588       -0.9065930591
 H         -5.5309998900        3.8549640127       -2.2854717754
 H         -3.7019389539        2.4099596737       -2.6985622610
 H         -5.1437533982        1.4415905494       -2.4677408853
 O         -3.3716966348        0.0334479224       -1.7122632014
 C         -2.6662699363       -1.0206145866       -1.1550171849
 O         -2.4948062966       -1.9834022678       -1.9250061376
 H          0.4496375292       -0.2192939462        0.6397883070
 C          0.7373535076       -1.1194700609        0.1105814287
 C         -0.1426523358       -2.1958481596        0.0926679856
 C          0.2357200760       -3.3508968924       -0.5766537410
 C          1.4564635740       -3.4121122715       -1.2276715914
 C          2.3217745587       -2.3344490514       -1.2219360441
 C          1.9588759927       -1.1773752818       -0.5430600560
 N          2.8243228892       -0.0669409411       -0.5382822005
 S          4.4704234641       -0.3736219283       -0.3096187291
 O          5.0397644576       -0.7675116054       -1.5740903507
 O          4.6563033026       -1.3035066424        0.7818436190
 C          5.0666024506        1.2435454295        0.1406869802
 C          5.3044456062        2.1662244517       -0.8604367667
 C          5.7498204968        3.4313206081       -0.5120728260
 C          5.9492222022        3.7506474979        0.8229978935
 C          5.7075575666        2.8134326508        1.8161208040
 C          5.2600330280        1.5467141129        1.4749280675
 H          5.0672059592        0.7840715015        2.2124709068
 H          5.8661045431        3.0635491130        2.8527880654
 H          6.2980502234        4.7353717103        1.0912628795
 H          5.9412799722        4.1622209661       -1.2810622925
 H          5.1457243949        1.8702110865       -1.8842473892
 H          2.5006725740        0.6609566909        0.0842519335
 H          3.2745581120       -2.3746872156       -1.7248481100
 H          1.7376302360       -4.3140777168       -1.7504526738
 H         -0.4259265977       -4.2007617597       -0.5984204741
 C         -1.4625211247       -2.0324546607        0.8062271955
 H         -1.2514171528       -1.6980022819        1.8324426761
 C         -2.2935253532       -3.2952624612        0.8682926495
 C         -1.9616359248       -4.3561117318        1.8734080362
 C         -3.1906910999       -3.5168598915        2.0476511157
 H         -4.1554330873       -3.9725251202        1.8824531142
 H         -3.1912028551       -2.7633389562        2.8217754331
 H         -1.1250738219       -4.1747858204        2.5312399049
 H         -2.0828868117       -5.3908118907        1.5910527511
 H         -2.6615108828       -3.6058301753       -0.1025891730
 O         -2.0421492577        0.4401348290        2.0913942416
