  62
        -98.93910189
 C         -2.6150790889       -0.2253398436       -0.4078813067
 C         -2.2065727867       -0.8368909649        0.8021127764
 C         -1.5894709548       -2.1641470400        0.6766829945
 C         -1.4621364100       -2.7177855584       -0.5424957073
 C         -0.7397205628       -3.9997159252       -0.8447582013
 C          0.7812500637       -3.7406797209       -0.8638166889
 C          1.5568481699       -4.4561415175        0.2426584710
 H          1.6414277256       -5.5158132244       -0.0096090082
 H          2.5640054047       -4.0344187982        0.2523355632
 C          0.9587871372       -4.3526265538        1.6492286649
 H          1.7417449742       -4.6484042198        2.3507427933
 H          0.1521186057       -5.0796908997        1.7578167356
 C          0.4305758072       -2.9697408901        2.0534931843
 H          0.9075751248       -2.1838727560        1.4661691564
 H          0.6934098058       -2.7952128762        3.0990682590
 C         -1.0984420863       -2.8156305074        1.9387512690
 H         -1.5807637471       -3.7891466410        2.0644426117
 H         -1.4479969682       -2.1645110451        2.7453301677
 H          1.1911019557       -4.0517776240       -1.8266888136
 H          0.9491046866       -2.6636294247       -0.7857813124
 H         -0.9925734562       -4.7515295964       -0.1003283531
 H         -1.0790959922       -4.3444106554       -1.8221100287
 O         -1.9136838612       -2.1208115080       -1.6778636476
 C         -2.4622803760       -0.8492161031       -1.6430642158
 O         -2.7791568348       -0.3927999782       -2.7632367900
 H         -0.4712470944        0.9486262343       -0.6376843698
 C         -0.7240020406        1.8015519580       -0.0245168980
 C         -2.0595300959        2.1040245786        0.2092443035
 C         -2.3583418409        3.2264822160        0.9704177307
 C         -1.3406502180        4.0062374048        1.4945926594
 C         -0.0136833967        3.6769084722        1.2921756990
 C          0.2958269185        2.5509605813        0.5345687199
 N          1.6306001309        2.1452195196        0.3741841049
 S          2.0626817160        0.8652495051       -0.6195171147
 O          1.7838893762        1.1710638473       -2.0076784141
 O          1.4912340496       -0.3512692332       -0.1016537387
 C          3.8229798893        0.8643244471       -0.3408704377
 C          4.6602876064        1.4857902015       -1.2475426278
 C          6.0241683016        1.5008221527       -1.0000374681
 C          6.5244355037        0.8988912190        0.1446634755
 C          5.6718168882        0.2770384141        1.0449037025
 C          4.3075649551        0.2582191080        0.8027628066
 H          3.6068820951       -0.2187794052        1.4684967364
 H          6.0639671893       -0.1926855595        1.9324261804
 H          7.5859042998        0.9119759399        0.3352270594
 H          6.6895493897        1.9802914589       -1.6997323828
 H          4.2265023455        1.9313397732       -2.1283648026
 H          2.3036037322        2.8970870632        0.3716628909
 H          0.7765044241        4.2726335261        1.7216219213
 H         -1.5867657510        4.8788105215        2.0805187715
 H         -3.3874194167        3.4880474048        1.1562432352
 C         -3.1172885654        1.2060712005       -0.3919074587
 H         -3.2541899828        1.4940892181       -1.4457965781
 C         -4.4517398733        1.3026914297        0.3194897906
 C         -5.4771354085        2.3035697637       -0.1190666914
 C         -5.6851581053        0.8463485007       -0.3983113553
 H         -6.4397725684        0.3131057957        0.1599021689
 H         -5.5623597369        0.4948807117       -1.4128654400
 H         -5.2277540403        2.9450134571       -0.9510163021
 H         -6.0949008061        2.7713346615        0.6326816709
 H         -4.3727578814        1.0747680245        1.3760840173
 O         -2.3408732651       -0.2940089879        1.9306504641
