  62
        -98.94038078
 C         -1.8128589277       -0.8691050315       -0.8143670956
 C         -2.0419163090       -0.3409774694        0.4804589936
 C         -3.4535890618       -0.2003513996        0.8676790702
 C         -4.4260249764       -0.6135743750        0.0362273485
 C         -5.9060283423       -0.5542610386        0.3007790916
 C         -6.5436304812        0.8041993674       -0.0216033470
 C         -6.2094245320        1.9291570919        0.9589265560
 H         -6.8892077328        2.7553978848        0.7413082270
 H         -6.4176734127        1.5961652598        1.9762238998
 C         -4.7651432702        2.4412787181        0.8677825474
 H         -4.3243416176        2.1210179791       -0.0790709759
 H         -4.7658671850        3.5335420793        0.8663049172
 C         -3.8590657267        1.9902656322        2.0134996938
 H         -2.8545285309        2.3795979833        1.8297715625
 H         -4.2179824360        2.4156413669        2.9532704046
 C         -3.7554112514        0.4679608337        2.1750079939
 H         -4.6763391690        0.0712846597        2.6018392665
 H         -2.9297046367        0.2494997374        2.8566416276
 H         -6.2458907004        1.0992694620       -1.0305292764
 H         -7.6269100352        0.6627680427       -0.0237414997
 H         -6.1032978597       -0.8125571430        1.3416267461
 H         -6.3661995162       -1.3109786379       -0.3384390390
 O         -4.1615889701       -1.1744279910       -1.1744604485
 C         -2.8598401667       -1.3049275349       -1.6304466587
 O         -2.7649070687       -1.8300338627       -2.7582241478
 O         -1.1318814068       -0.0032528614        1.2792383565
 C         -0.4078459628       -1.0549322620       -1.3598909689
 C          0.4811487145       -1.6761954083       -0.3106607806
 C          0.0927252804       -2.8851455693        0.2626754195
 C          0.8709505361       -3.4927441922        1.2272914534
 C          2.0696856543       -2.9234538093        1.6218884651
 C          2.4718511604       -1.7249309052        1.0487461889
 C          1.6756886002       -1.1050149606        0.0954118759
 H          1.9963579835       -0.1623388829       -0.3138265793
 N          3.6779789552       -1.1125603496        1.4231735031
 S          4.6592328022       -0.4606989496        0.2352188825
 O          4.5549552285       -1.1979050537       -1.0031053870
 O          5.9766291412       -0.4113370339        0.8340315653
 C          4.0734342156        1.2047618008        0.0082065458
 C          3.7887718582        1.9691558537        1.1221150001
 C          3.3725353276        3.2788534232        0.9452438017
 C          3.2560957671        3.8020106136       -0.3336756937
 C          3.5493983988        3.0223040038       -1.4421620053
 C          3.9628408254        1.7102731245       -1.2720026228
 H          4.1912854357        1.0654379300       -2.1058286677
 H          3.4559008184        3.4294137243       -2.4365901902
 H          2.9313397880        4.8218129977       -0.4683166416
 H          3.1391282260        3.8872884493        1.8040584195
 H          3.8898118037        1.5303249436        2.1005055864
 H          4.2138961968       -1.6161624972        2.1148721645
 H          2.6840020252       -3.4005754764        2.3706304621
 H          0.5490157562       -4.4233715548        1.6705021660
 H         -0.8395197627       -3.3355860198       -0.0521367042
 H         -0.5144184437       -1.7879568984       -2.1775489760
 C          0.1862757244        0.2021569706       -1.9788020292
 C         -0.6920780275        1.2603946803       -2.5748135167
 C          0.0741892669        1.5427942326       -1.3194032730
 H          0.9206483870        2.2117327363       -1.3723542614
 H         -0.4630033448        1.5922810331       -0.3860963792
 H         -0.3734148399        1.7314656703       -3.4924343960
 H         -1.7612584652        1.1202198129       -2.5057534728
 H          1.1115258260       -0.0070953227       -2.5083015076
