  62
        -98.94524035
 C          1.4781863203        1.2676889449       -0.4001644718
 C          2.8145394780        1.3773023370        0.0665225068
 C          3.7877124717        0.4486722203       -0.5157068146
 C          3.3881719297       -0.4331355683       -1.4494508046
 C          4.2614345541       -1.4383166082       -2.1503308994
 C          4.4700365029       -2.7382436239       -1.3615548736
 C          5.3900450043       -2.6206389261       -0.1455831089
 H          6.3275677422       -2.1509485599       -0.4449230360
 H          5.6230235562       -3.6369224953        0.1784356474
 C          4.7819953969       -1.8537435743        1.0372544420
 H          4.9642269629       -2.4066886654        1.9616656275
 H          3.6977291670       -1.7914858883        0.9131279909
 C          5.3410806267       -0.4444927616        1.2347392920
 H          6.3999430456       -0.5043819805        1.4959999517
 H          4.8121236563        0.0181113786        2.0718720296
 C          5.1896932276        0.4722237616        0.0139797738
 H          5.8953059776        0.1824990839       -0.7643024973
 H          5.4100913250        1.4962551512        0.3250786431
 H          4.9021965295       -3.4703996593       -2.0478060051
 H          3.4939683610       -3.1152755606       -1.0456211865
 H          5.2289325944       -0.9891271768       -2.3767792154
 H          3.7618175038       -1.6828362650       -3.0901982618
 O          2.1058837703       -0.4924004634       -1.8911436820
 C          1.1150085751        0.3293056505       -1.3668570839
 O         -0.0060066650        0.1298905945       -1.8710645029
 O          3.1790307093        2.2233318602        0.9263803377
 C          0.4561944876        2.1896426181        0.2475562273
 C         -0.2087306342        1.4468258498        1.3830941970
 C          0.2203379457        1.6525062543        2.6902317370
 C         -0.3519793078        0.9524983079        3.7364720997
 C         -1.3567170865        0.0331424385        3.4972703830
 C         -1.7899739439       -0.1852381543        2.1932352575
 C         -1.2220207769        0.5276887717        1.1467671422
 H         -1.5418964760        0.3347227900        0.1372438053
 N         -2.8230100428       -1.0949846056        1.9367679263
 S         -2.8739674995       -2.0038763526        0.5294570920
 O         -3.7158935432       -3.1309137006        0.8803769563
 O         -1.5505827068       -2.3306559938        0.0551839304
 C         -3.7713243800       -0.9675727132       -0.6054733154
 C         -5.0815459839       -0.6730437158       -0.2790156633
 C         -5.8195493404        0.1351305928       -1.1271608301
 C         -5.2374732217        0.6325686115       -2.2839374396
 C         -3.9236611131        0.3236638517       -2.5982603221
 C         -3.1779214284       -0.4865770903       -1.7542420575
 H         -2.1464029287       -0.7254246335       -1.9640039358
 H         -3.4655930976        0.7110596896       -3.4946514512
 H         -5.8098512460        1.2643498643       -2.9449373488
 H         -6.8421249599        0.3763712623       -0.8854521613
 H         -5.4959796548       -1.0881459220        0.6245108689
 H         -3.1353657545       -1.6237061537        2.7377448849
 H         -1.8019509137       -0.5183272671        4.3115214809
 H         -0.0093650985        1.1194423061        4.7465591740
 H          1.0226109520        2.3521146031        2.8749724913
 H          1.0483800834        3.0031107528        0.6892308736
 C         -0.5436858737        2.7936205678       -0.7153676295
 C         -1.3372502465        3.9861805215       -0.2750176972
 C         -0.2658426365        4.1397922074       -1.3113966706
 H         -0.5571739769        4.3180188472       -2.3355072804
 H          0.6520526276        4.6338939609       -1.0276089769
 H         -2.3681576004        4.0599909364       -0.5847288446
 H         -1.1446614848        4.3756893633        0.7132407160
 H         -1.0359877302        2.0680693347       -1.3483665167
