  62
        -98.94105332
 C         -2.0124484271       -0.3667432326        0.0679507611
 C         -3.1047733439       -1.0860506865        0.6203176554
 C         -4.3311972991       -0.3194357525        0.8734980547
 C         -4.3388501817        1.0033768854        0.6303974772
 C         -5.5331612486        1.8980696271        0.7885387747
 C         -6.3347907282        1.9868120420       -0.5178198672
 C         -6.6439611845        0.6281991328       -1.1470795975
 H         -5.7092708075        0.1642005705       -1.4704895879
 H         -7.2370677078        0.8133927113       -2.0452882102
 C         -7.3987779900       -0.3411140770       -0.2265617702
 H         -8.2065277319       -0.8064916376       -0.7953685159
 H         -7.8574940515        0.2102030688        0.5950490720
 C         -6.5422610526       -1.4749516057        0.3403192552
 H         -6.0099690736       -1.9739023988       -0.4736605403
 H         -7.2107250650       -2.2119999795        0.7930897266
 C         -5.5193900476       -1.0680006208        1.4084860207
 H         -5.1206162093       -1.9843133905        1.8536220815
 H         -6.0158681490       -0.4932132987        2.1929578604
 H         -5.7598034295        2.5744977253       -1.2373935809
 H         -7.2673381603        2.5166859516       -0.3153076671
 H         -6.1638380931        1.5163860777        1.5891715191
 H         -5.1825478569        2.8957272377        1.0583881273
 O         -3.2566940503        1.6716717918        0.1615184217
 C         -2.0698873408        1.0122900708       -0.1431200234
 O         -1.1820638058        1.7667406641       -0.5801969504
 H          1.1865469271        0.3915956858       -1.4130561065
 C          1.3389255095        0.2839034332       -0.3505907508
 C          0.4450545890       -0.4641968052        0.3993060595
 C          0.6471306951       -0.5647643798        1.7724758235
 C          1.7103446046        0.0763315866        2.3801805153
 C          2.5919085968        0.8352024293        1.6311487439
 C          2.3966241348        0.9442320140        0.2607268600
 N          3.2847403205        1.7201871571       -0.5029009935
 S          4.9246778805        1.4985713981       -0.2739498950
 O          5.3493196660        2.1785113252        0.9243585931
 O          5.5451219474        1.9373303483       -1.5041065035
 C          5.1140872807       -0.2638204762       -0.0708874964
 C          4.8318467613       -1.0721100482       -1.1545975328
 C          4.9171497512       -2.4465994590       -1.0065958352
 C          5.2769240104       -2.9872290310        0.2187489162
 C          5.5601047118       -2.1625282908        1.2960365389
 C          5.4769232817       -0.7863857793        1.1533550197
 H          5.6898272694       -0.1099625953        1.9648118242
 H          5.8418607739       -2.5858808778        2.2466657311
 H          5.3380257305       -4.0580594499        0.3328786009
 H          4.7000100408       -3.0906196845       -1.8437098516
 H          4.5623391274       -0.6165838675       -2.0940171213
 H          3.0451041479        1.7752798999       -1.4812686471
 H          3.4163139327        1.3580751552        2.0882571482
 H          1.8520443496       -0.0092437534        3.4468501226
 H         -0.0489802427       -1.1462770143        2.3611322292
 C         -0.7438231865       -1.1520678575       -0.2192968526
 H         -0.8956736771       -2.1068985599        0.3097137683
 C         -0.5339912730       -1.5026978737       -1.6850275297
 C         -1.7019212074       -1.8487323035       -2.5582710901
 C         -0.9221646241       -0.5951885813       -2.8122073617
 H         -0.2820494134       -0.5605097876       -3.6822381675
 H         -1.3733778744        0.3535856118       -2.5678298440
 H         -2.6880879438       -1.7563999101       -2.1267342347
 H         -1.6043002003       -2.6689136583       -3.2533219136
 H          0.3662585000       -2.0928816973       -1.8282858291
 O         -3.0549281954       -2.3157452364        0.8892579420
