  62
        -98.94867100
 C          2.1107221573        0.9185875869       -0.1977630332
 C          1.2778057851        1.7027310714       -1.0292255711
 C          0.4251115268        2.6797966498       -0.3463680363
 C          0.4591272384        2.7681527864        0.9959870968
 C         -0.3613766348        3.7063141236        1.8392587690
 C         -1.7779911501        3.1899264974        2.1286983644
 C         -2.7525255114        3.2743832397        0.9528026810
 H         -3.7547745739        3.1175752906        1.3564123626
 H         -2.7236165923        4.2784014619        0.5272533901
 C         -2.4985242122        2.2332837678       -0.1461227536
 H         -3.4466828155        1.7764595444       -0.4417694684
 H         -1.8747916967        1.4324202285        0.2580372105
 C         -1.8487179209        2.7889773435       -1.4131410261
 H         -2.5338995264        3.4871546954       -1.8992585071
 H         -1.6726819720        1.9559630605       -2.0975097869
 C         -0.5111745749        3.5027587932       -1.1805498025
 H         -0.0348678620        3.6599051481       -2.1517965112
 H         -0.6789353814        4.4725487483       -0.7124816044
 H         -2.1804110995        3.7826609049        2.9539130443
 H         -1.7065662930        2.1515863139        2.4640053738
 H         -0.4172902065        4.6840839977        1.3591280383
 H          0.1675671644        3.8134415951        2.7888198607
 O          1.2824972600        2.0052092810        1.7612954378
 C          2.0925597225        1.0357389777        1.1926445212
 O          2.7550814246        0.3716213414        2.0143746657
 O          1.2430952492        1.5836630226       -2.2853687506
 C          2.9521663976       -0.1775846362       -0.8265729188
 C          2.4648457279       -1.5207006129       -0.3367376816
 C          3.3048240654       -2.5778546433       -0.0149186170
 C          2.7761519534       -3.7641703216        0.4662545831
 C          1.4146981012       -3.9131134493        0.6536165131
 C          0.5622526929       -2.8648829175        0.3195418566
 C          1.0939352009       -1.6995542226       -0.2025444874
 H          0.4378246525       -0.8803528900       -0.4512566022
 N         -0.8267434033       -2.9850804864        0.4861086727
 S         -1.8017438261       -1.7340278619        1.0394888607
 O         -1.0355664798       -0.5593481124        1.3731815301
 O         -2.5969641009       -2.3053495327        2.1078806135
 C         -2.8802032956       -1.4051481480       -0.3436730242
 C         -4.2405236506       -1.5740323475       -0.1727158216
 C         -5.0931805149       -1.3095121281       -1.2326589120
 C         -4.5742608169       -0.8823738492       -2.4448495703
 C         -3.2065554536       -0.7200250012       -2.6037198272
 C         -2.3498749523       -0.9826045526       -1.5463781078
 H         -1.2839542490       -0.8545283895       -1.6490345385
 H         -2.7991030174       -0.3870124371       -3.5451570690
 H         -5.2359444240       -0.6737843449       -3.2705299114
 H         -6.1565838796       -1.4362041562       -1.1088180319
 H         -4.5988454726       -1.9078129237        0.7872553316
 H         -1.1137588964       -3.8528275430        0.9153350308
 H          1.0107863455       -4.8283983211        1.0593262697
 H          3.4378770555       -4.5787859111        0.7192775927
 H          4.3714693018       -2.4701526301       -0.1260515684
 H          2.7581672262       -0.1120888001       -1.9083721108
 C          4.4276373503        0.0540298841       -0.5810000538
 C          5.4439042379       -0.4010880114       -1.5844384536
 C          5.1518776636        1.0595706124       -1.4236595070
 H          5.8925344958        1.6882420137       -0.9528236040
 H          4.5846262412        1.5574898811       -2.1964880158
 H          6.3909377395       -0.7748365117       -1.2253248593
 H          5.0826667423       -0.8930022775       -2.4748673748
 H          4.6845866530        0.0043416047        0.4711638503
