  62
        -98.94692144
 C         -2.0622079774       -1.0458706628       -0.5217037887
 C         -1.4879703374        0.0695652809       -1.1771385616
 C         -2.1780693036        1.3551387240       -0.9913466825
 C         -3.2760772539        1.4160855745       -0.2186978780
 C         -4.0381703846        2.6684945673        0.1018082522
 C         -3.5176240638        3.3264915909        1.3868316297
 C         -1.9992041220        3.5040827412        1.4252918159
 H         -1.7563895183        4.0221731534        2.3561980852
 H         -1.5156921422        2.5248387239        1.4748685609
 C         -1.4180748099        4.2865878879        0.2395070735
 H         -0.6882422129        5.0039659915        0.6209331419
 H         -2.2070863420        4.8552942284       -0.2552449724
 C         -0.6910916040        3.4149946314       -0.7862635647
 H         -0.1063255924        4.0694894993       -1.4388583587
 H          0.0080085302        2.7581881000       -0.2620065652
 C         -1.5934629052        2.5554736558       -1.6814811731
 H         -2.3832983465        3.1749617043       -2.1120798635
 H         -0.9796159473        2.1650271879       -2.4983466759
 H         -4.0004067793        4.2998666521        1.4948426171
 H         -3.8098326642        2.7058000337        2.2372455519
 H         -5.0883289268        2.4049346194        0.2403218415
 H         -3.9546673206        3.3620835947       -0.7326577057
 O         -3.8023727335        0.3267451920        0.3974836509
 C         -3.2052864856       -0.9148319645        0.2731160702
 O         -3.7877027529       -1.8237362819        0.9003437935
 O         -0.4562451723        0.0226495636       -1.8981745346
 C         -1.4720095902       -2.4486024228       -0.5593077115
 C         -0.4487537900       -2.5941925194        0.5429622355
 C         -0.5942025156       -3.5672399994        1.5239079034
 C          0.3189746228       -3.6616939597        2.5590448378
 C          1.3736190922       -2.7724184139        2.6464086095
 C          1.5290830236       -1.7939787289        1.6688192298
 C          0.6375877182       -1.7322253821        0.6087507651
 H          0.7634091298       -0.9761416609       -0.1472735635
 N          2.5877272078       -0.8798474774        1.7456801548
 S          2.4157386873        0.7358444891        1.3130304037
 O          3.1976620034        1.4551497968        2.3000601390
 O          1.0291255727        1.1144401787        1.2049821834
 C          3.2734069434        0.8288176608       -0.2448344075
 C          2.5901508233        0.8552242426       -1.4424996107
 C          3.3170959457        0.9004297880       -2.6235242079
 C          4.7019496726        0.9177821197       -2.5889781791
 C          5.3738610612        0.8928289668       -1.3755984899
 C          4.6551687924        0.8477849432       -0.1933303464
 H          5.1352680766        0.8410805230        0.7711602896
 H          6.4515646633        0.9078484869       -1.3490871501
 H          5.2595367968        0.9517628687       -3.5118102205
 H          2.7884276729        0.9174608524       -3.5632972840
 H          1.5111060975        0.8306835653       -1.4548539502
 H          3.1506355086       -0.9666761160        2.5791389058
 H          2.0709332899       -2.8264506541        3.4690341868
 H          0.1967941937       -4.4213027816        3.3164193315
 H         -1.4414620980       -4.2360580925        1.4841535214
 H         -2.3051579537       -3.1273353838       -0.3291439984
 C         -0.8892078629       -2.8479330060       -1.8997642108
 C         -0.7790263176       -4.3040571404       -2.2344812986
 C         -1.7850914779       -3.4461478011       -2.9402906368
 H         -1.6142413637       -3.1891693976       -3.9746979455
 H         -2.8286135562       -3.5714592298       -2.6891759373
 H          0.0860968597       -4.6405661599       -2.7845982012
 H         -1.1419461389       -5.0148004489       -1.5074061377
 H         -0.1012727614       -2.1911449420       -2.2417100841
