  62
        -98.94952163
 C          1.6443182515        0.7848417308       -0.7059362827
 C          1.5212716604        1.5794402390        0.4590186055
 C          0.5495934046        2.6806798533        0.3837874337
 C         -0.1745764321        2.8469264342       -0.7372675940
 C         -1.1931981173        3.9291523431       -0.9527222618
 C         -2.6062996516        3.4888393088       -0.5491509855
 C         -2.6918750014        2.8574718884        0.8405704704
 H         -2.1701082456        1.8976077481        0.8479663080
 H         -3.7455135765        2.6424092880        1.0362478088
 C         -2.1296556836        3.7267651006        1.9733245021
 H         -2.8197805491        3.6834585389        2.8186289951
 H         -2.0705088134        4.7684826011        1.6540051263
 C         -0.7638559985        3.2696901801        2.4903750316
 H         -0.7894096940        2.1908364439        2.6684177273
 H         -0.5799318707        3.7594335544        3.4508567431
 C          0.4318299651        3.5808203375        1.5806851863
 H          1.3435507129        3.4206635904        2.1640232974
 H          0.3991205863        4.6295159027        1.2751903704
 H         -2.9695585854        2.7615464799       -1.2792773966
 H         -3.2602747985        4.3624313332       -0.5902207304
 H         -0.9009888147        4.8063157116       -0.3781417864
 H         -1.1943550799        4.1867490187       -2.0136832578
 O         -0.0664544073        2.0294218140       -1.8167429298
 C          0.8368627903        0.9772505154       -1.8254267051
 O          0.8266777587        0.2996138715       -2.8729147740
 H          0.2097268606       -1.3063193882       -0.2478517588
 C          0.9219840320       -1.7222714813        0.4497808284
 C          2.2590701295       -1.3616192947        0.3437154658
 C          3.1695160989       -1.9201344063        1.2305082427
 C          2.7364275579       -2.7889835900        2.2179339082
 C          1.3964709756       -3.1029592981        2.3522748700
 C          0.4797358630       -2.5597531211        1.4588814004
 N         -0.8897906014       -2.8516523008        1.5452646753
 S         -1.9999012783       -1.6556016260        1.1658433426
 O         -1.5162723458       -0.3399754116        1.5094212738
 O         -3.2172003293       -2.0760205926        1.8298395539
 C         -2.2293539547       -1.8108054816       -0.5918068733
 C         -2.2372103956       -0.6792722906       -1.3814410095
 C         -2.4301203972       -0.8114287438       -2.7468480086
 C         -2.6164560435       -2.0703246635       -3.2955563815
 C         -2.6156165539       -3.1980819132       -2.4882389450
 C         -2.4216907514       -3.0710895562       -1.1224519722
 H         -2.4114139173       -3.9231718768       -0.4635146070
 H         -2.7606402961       -4.1749392423       -2.9207407466
 H         -2.7590497178       -2.1702519672       -4.3599584187
 H         -2.4149648993        0.0665086006       -3.3726870025
 H         -2.0717889935        0.2819078468       -0.9199296205
 H         -1.1655083571       -3.3843470936        2.3574143968
 H          1.0587150504       -3.7568564943        3.1418681295
 H          3.4517579833       -3.2127864963        2.9065034519
 H          4.2143347601       -1.6661916038        1.1588725776
 C          2.6262595325       -0.3741297630       -0.7370892807
 H          2.4852455649       -0.8654064489       -1.7112477066
 C          4.0507542137        0.1298053551       -0.6438846293
 C          5.1691246584       -0.6527447065       -1.2622624304
 C          4.7214424314        0.6345440065       -1.8848446750
 H          5.3643668136        1.4984896487       -1.8086034441
 H          4.1567890539        0.5907394537       -2.8049456212
 H          4.9161311424       -1.5729749600       -1.7665691501
 H          6.1245718865       -0.6716671998       -0.7600627012
 H          4.2442971196        0.6607516420        0.2809771581
 O          2.2053630516        1.3972770733        1.5002802142
