  62
        -98.94397004
 C          1.6830840086        1.3372176509        0.3129131705
 C          1.3616697897        0.2747335809       -0.5602933099
 C          1.9691177604       -1.0327082688       -0.2640605000
 C          2.7649563001       -1.1606705885        0.8136159002
 C          3.4605087207       -2.3711280682        1.4011569402
 C          3.6087299319       -3.6577631979        0.5933252399
 C          4.5300633623       -3.5494327270       -0.6210248797
 H          5.5554806020       -3.4150159764       -0.2678388492
 H          4.4866035231       -4.4947538369       -1.1662448099
 C          4.2181273519       -2.4056435570       -1.5823827395
 H          4.3613711210       -1.4503090570       -1.0734805292
 H          4.9437100622       -2.4486534663       -2.3990743192
 C          2.8209694721       -2.4345250177       -2.1988069401
 H          2.6454897930       -3.4051751877       -2.6662844804
 H          2.7933953419       -1.6741047775       -2.9834824899
 C          1.6613219716       -2.1396472087       -1.2305128504
 H          0.8049838716       -1.8011080892       -1.8209297307
 H          1.3471895519       -3.0328439191       -0.6946259808
 H          4.0395227121       -4.4006675778        1.2704157499
 H          2.6311238522       -4.0295964085        0.3004646695
 H          4.4522778803       -2.0249485577        1.7103427507
 H          2.9127433205       -2.6024700588        2.3221038599
 O          3.0379997691       -0.1058192186        1.6379803006
 C          2.5029646983        1.1509788511        1.4217304307
 O          2.8295499174        2.0056073111        2.2723928611
 H         -0.4592911218        1.1528295691        1.6504815296
 C         -1.0573057419        1.7143957389        0.9470652395
 C         -0.4419273021        2.5821513195        0.0538157500
 C         -1.2413061422        3.2989864992       -0.8282585902
 C         -2.6147759321        3.1255106583       -0.8313747807
 C         -3.2165845618        2.2206716077        0.0240185988
 C         -2.4261457117        1.5074049080        0.9173341589
 N         -2.9805366214        0.5508531574        1.7955354785
 S         -2.5166786403       -1.0428434222        1.5471601182
 O         -3.2861833301       -1.8101049930        2.5040996677
 O         -1.0846424602       -1.1617310913        1.6388054387
 C         -3.0951685994       -1.4086886522       -0.1008430021
 C         -4.3135634489       -2.0459236930       -0.2426337627
 C         -4.8138438882       -2.2652932630       -1.5154419330
 C         -4.0953052481       -1.8350927622       -2.6210704526
 C         -2.8769748986       -1.1940654214       -2.4608459720
 C         -2.3670376492       -0.9738207414       -1.1899033817
 H         -1.4191285696       -0.4782150408       -1.0464299112
 H         -2.3115364885       -0.8557005209       -3.3143583917
 H         -4.4853690276       -2.0005966922       -3.6129997428
 H         -5.7603491379       -2.7660247936       -1.6409018435
 H         -4.8342281590       -2.3639077736        0.6463104570
 H         -3.9896930015        0.5908718067        1.8512099681
 H         -4.2845347417        2.0635791270        0.0023708383
 H         -3.2222714822        3.6883530781       -1.5233641508
 H         -0.7867833924        3.9900785697       -1.5191998498
 C          1.0626083378        2.7050795805        0.0968943106
 H          1.3357643971        3.3067278305        0.9767270808
 C          1.6449930379        3.3559089812       -1.1416844690
 C          1.7973513369        4.8447622113       -1.2175969686
 C          3.0067475874        3.9747850221       -1.0576011883
 H          3.6783971878        3.8609550028       -1.8952065181
 H          3.5004933971        3.9512176322       -0.0966287481
 H          1.6426141370        5.3317038015       -2.1686474885
 H          1.4774604762        5.4251246409       -0.3653434886
 H          1.3954586486        2.8172747313       -2.0486306093
 O          0.5873406400        0.4083428706       -1.5451784402
