  62
        -98.94123400
 C          2.4875837572        1.3656697284       -0.0291492749
 C          3.2439906383        0.7161215942        0.9816136773
 C          4.1234925167       -0.3755409223        0.5463703865
 C          4.1721631265       -0.6957687387       -0.7590599318
 C          4.9881281834       -1.8128501735       -1.3407834620
 C          4.1844273639       -3.1194051861       -1.3977909764
 C          3.4822939978       -3.4719679212       -0.0861744222
 H          2.7053887400       -2.7299168746        0.1156738005
 H          2.9752940520       -4.4279505549       -0.2356906562
 C          4.4168611918       -3.5723779920        1.1277035475
 H          4.1565463029       -4.4684980216        1.6948020324
 H          5.4480069901       -3.6887294815        0.7921339911
 C          4.3286612645       -2.3912402276        2.0960485868
 H          3.2826368329       -2.2100182147        2.3571415899
 H          4.8526510959       -2.6659098876        3.0153145694
 C          4.9373601973       -1.0740976946        1.5986887446
 H          5.9552256604       -1.2498908867        1.2447410118
 H          4.9812340890       -0.3864498335        2.4482522738
 H          3.4241118945       -3.0263287588       -2.1770418504
 H          4.8609153472       -3.9287235849       -1.6785402697
 H          5.8839349517       -1.9515198774       -0.7385765102
 H          5.2812588028       -1.5329904535       -2.3540867696
 O          3.4377171699       -0.0537722428       -1.7005607660
 C          2.5676393160        0.9783686855       -1.3669828132
 O          1.9517448828        1.4402848085       -2.3465430297
 O          3.1920259963        1.0470123089        2.1963934570
 C          1.5872715768        2.5026541030        0.4248055755
 C          0.1843489263        2.0123171926        0.6766303903
 C         -0.4455986552        2.2322365569        1.8955882768
 C         -1.7268342016        1.7590445925        2.1214191103
 C         -2.4050201543        1.0609321465        1.1384136915
 C         -1.7812916899        0.8291816013       -0.0807105627
 C         -0.4976685040        1.3044949914       -0.3041398438
 H         -0.0165417359        1.1211882538       -1.2541435332
 N         -2.4627459336        0.1213332108       -1.0894119652
 S         -3.0473914564       -1.4031871348       -0.6869887317
 O         -2.2682491586       -2.0030274465        0.3722764453
 O         -3.1096785555       -2.1333161528       -1.9342245911
 C         -4.7042850303       -1.0774929479       -0.1219740141
 C         -5.0913712100       -1.4660131587        1.1455147365
 C         -6.3873198186       -1.2007299394        1.5606408878
 C         -7.2678496314       -0.5562268858        0.7053036770
 C         -6.8639727939       -0.1750285382       -0.5657843412
 C         -5.5704173380       -0.4379351173       -0.9872635831
 H         -5.2169664025       -0.1626995604       -1.9669633703
 H         -7.5515528587        0.3258123071       -1.2281360004
 H         -8.2751310864       -0.3500551367        1.0311124529
 H         -6.7032167128       -1.4966381481        2.5481210646
 H         -4.3698256388       -1.9595134993        1.7771407232
 H         -1.9447163122        0.0770985580       -1.9561370791
 H         -3.4022283646        0.6889891297        1.3079859184
 H         -2.2029354603        1.9355291162        3.0737303363
 H          0.0829762590        2.7626168741        2.6740814503
 H          2.0057542638        2.8119960353        1.3956656565
 C          1.6430610920        3.7135457363       -0.4972788450
 C          0.4987570805        4.1705268997       -1.3467116256
 C          0.8914676090        4.9612123594       -0.1373338326
 H          1.3760465999        5.9159428966       -0.2735341998
 H          0.2381625089        4.9131034696        0.7208335938
 H          0.7313753653        4.5612287139       -2.3256433674
 H         -0.4221153742        3.6103536741       -1.3124120084
 H          2.6333995858        3.8481526230       -0.9210508536
