  62
        -98.93784540
 C         -1.7616298900       -0.8272797351        0.8622888645
 C         -1.9464937499        0.2082233611       -0.0810020787
 C         -3.3350006498        0.6649248428       -0.3038078856
 C         -4.3299768199        0.0836532585        0.3920352707
 C         -5.8099940398        0.3512746793        0.3128786626
 C         -6.4563409301       -0.2530644124       -0.9429716313
 C         -5.6854768201       -0.0130693241       -2.2379064898
 H         -4.6842533102       -0.4367319649       -2.1428435527
 H         -6.1958813403       -0.5608469088       -3.0344181733
 C         -5.5788728299        1.4476927087       -2.6695038903
 H         -6.5825187698        1.8658263796       -2.7734039174
 H         -5.1108488500        1.4599739451       -3.6571364002
 C         -4.7629251797        2.3601027726       -1.7498921544
 H         -5.3396785395        2.6631233270       -0.8800023923
 H         -4.5440427296        3.2745964762       -2.3090272184
 C         -3.4191800997        1.7853882595       -1.3122933683
 H         -2.8691258299        1.4425795251       -2.1963358406
 H         -2.8094678695        2.5973393866       -0.8965169430
 H         -6.5352129602       -1.3330517534       -0.7966493384
 H         -7.4663801700        0.1493536084       -1.0373320186
 H         -6.2586102698       -0.1150314664        1.1929127496
 H         -6.0017206196        1.4185411789        0.3701004396
 O         -4.1005780800       -0.9153306675        1.2926438541
 C         -2.8317170400       -1.3888229994        1.5574905809
 O         -2.7834418001       -2.2911090151        2.4183314650
 O         -0.9997263599        0.7351951552       -0.7230643954
 C         -0.3684681601       -1.3457820573        1.1710790310
 C          0.4795107302       -0.2300708812        1.7325267382
 C          0.0073614704        0.4748575917        2.8375959328
 C          0.7537693607        1.4921746179        3.3981578794
 C          1.9852815307        1.8332786812        2.8651304315
 C          2.4672417605        1.1371037583        1.7647397769
 C          1.7186631402        0.1056637120        1.2118969903
 H          2.1118659700       -0.4263716925        0.3633919068
 N          3.7298576505        1.4304650816        1.2227867787
 S          3.8889835803        1.6337858424       -0.4362293699
 O          5.1510699904        2.3295601632       -0.5842450555
 O          2.7375663204        2.2879055864       -1.0101493755
 C          4.0708214200       -0.0135363134       -1.0838514707
 C          5.0852520499       -0.8065031268       -0.5842632860
 C          5.2548563996       -2.0799822335       -1.1031920844
 C          4.4167202594       -2.5326709567       -2.1113661072
 C          3.4044757395       -1.7223134933       -2.6036963918
 C          3.2265956798       -0.4486345967       -2.0861318735
 H          2.4422918699        0.2099827757       -2.4260832391
 H          2.7503165794       -2.0768146481       -3.3846030941
 H          4.5500924292       -3.5240256441       -2.5155346937
 H          6.0379296895       -2.7153029461       -0.7220864786
 H          5.7188807200       -0.4146059720        0.1935526965
 H          4.2307788006        2.1582634183        1.7131749435
 H          2.5677265009        2.6325251982        3.2984719367
 H          0.3738179508        2.0290767924        4.2545180030
 H         -0.9570655996        0.2103882892        3.2505249312
 H         -0.5003612501       -2.0966417925        1.9641558561
 C          0.2366719297       -2.0217505895       -0.0406767835
 C          1.2610920195       -3.0999353409        0.1418430193
 C         -0.1192416506       -3.4486621176       -0.3257524428
 H         -0.2574742507       -3.7497176008       -1.3531732348
 H         -0.7883085706       -3.9399087520        0.3660389840
 H          2.0749300095       -3.1626380364       -0.5643878311
 H          1.5324274396       -3.3606938776        1.1535400476
 H          0.3384578498       -1.3521556340       -0.8870536391
