  62
        -98.94371934
 C          1.6277489058       -0.1288879673       -0.8398190379
 C          2.9063038076        0.1789687920       -1.3630896195
 C          4.0472280724       -0.3971655894       -0.6429445589
 C          3.8323630772       -1.1750871856        0.4338149061
 C          4.8913895187       -1.8538506639        1.2597890133
 C          5.5094343915       -0.9569949180        2.3411367406
 C          6.4522342335        0.1299083107        1.8233163550
 H          7.2009972925       -0.3204546756        1.1709189775
 H          6.9778776763        0.5375329214        2.6891629137
 C          5.7497525740        1.2792550034        1.0870634961
 H          6.1446576128        2.2341706864        1.4414068609
 H          4.6835042155        1.2664655676        1.3249610888
 C          5.9183147989        1.2557619624       -0.4322337018
 H          6.9706538932        1.4008517064       -0.6864963563
 H          5.3528964050        2.0913650794       -0.8529164543
 C          5.4269128344       -0.0339242695       -1.1028970959
 H          6.1222518118       -0.8492969357       -0.9047069687
 H          5.3840227049        0.1357799566       -2.1815964396
 H          6.0725484380       -1.6034062967        3.0183046954
 H          4.7026099661       -0.4960692362        2.9155816272
 H          4.4067453727       -2.7003422090        1.7507813443
 H          5.6780543033       -2.2339958759        0.6075296321
 O          2.5863793569       -1.4572590352        0.8976265329
 C          1.4551956307       -0.9253778192        0.2927434731
 O          0.3849640707       -1.2396346919        0.8445935414
 H         -2.1787683510        0.3210925298       -0.5486679449
 C         -1.6177604099        1.1403878104       -0.1363077096
 C         -0.3118963974        1.3603531241       -0.5400203474
 C          0.3822066887        2.4405928567        0.0007407372
 C         -0.2171451057        3.2691432171        0.9286077617
 C         -1.5182739629        3.0369969830        1.3408243076
 C         -2.2198741137        1.9626178477        0.8072130448
 N         -3.5161934954        1.6766351207        1.2418911992
 S         -4.6085065512        0.7943871545        0.3505187063
 O         -4.6300892739        1.2085239112       -1.0332904101
 O         -5.8547756816        0.9500960943        1.0703229445
 C         -4.0574009886       -0.8933865728        0.4785493805
 C         -3.6356560453       -1.3697937073        1.7029496558
 C         -3.2121769003       -2.6852168340        1.7980309921
 C         -3.2204429839       -3.4980349205        0.6753738209
 C         -3.6538718445       -3.0067258070       -0.5461447515
 C         -4.0786080532       -1.6921564868       -0.6473126064
 H         -4.4135286182       -1.2639074344       -1.5791420728
 H         -3.6568690275       -3.6403215978       -1.4189826269
 H         -2.8820217915       -4.5194419905        0.7516234105
 H         -2.8680229248       -3.0701125636        2.7443279112
 H         -3.6331853247       -0.7102703334        2.5547272896
 H         -3.9392906185        2.3375649281        1.8739924011
 H         -1.9837780283        3.6774949710        2.0742079173
 H          0.3319346890        4.1035526352        1.3387625435
 H          1.4016985461        2.6163909429       -0.3149800841
 C          0.3991647359        0.4553163407       -1.5147530560
 H          0.7834147355        1.0715828471       -2.3407192691
 C         -0.4753598801       -0.6398261660       -2.0863875588
 C         -1.4289875525       -0.3292180846       -3.1996240511
 C         -0.2020019926       -1.1457315167       -3.4697744645
 H         -0.3169766976       -2.2013792101       -3.6639316877
 H          0.6084531287       -0.6869329830       -4.0170944867
 H         -1.4576541100        0.6867538833       -3.5636884918
 H         -2.3896751666       -0.8209288278       -3.2096000968
 H         -0.7797937708       -1.3663853273       -1.3409579177
 O          3.0852384759        0.9003778252       -2.3812384883
