  62
        -98.94510283
 C         -1.3224447407       -0.8802017401        0.3869864698
 C         -2.2706576607       -0.8285878398       -0.6646900502
 C         -3.1291395106        0.3667523403       -0.6962512900
 C         -2.9496947305        1.3397629801        0.2138235101
 C         -3.7805967904        2.5851215401        0.3174483904
 C         -4.9681266404        2.3819327401        1.2689625503
 C         -5.7684592905        1.1083343702        0.9961130301
 H         -5.1404769506        0.2399122601        1.2083428200
 H         -6.5964516205        1.0863562802        1.7081281301
 C         -6.3197066305        0.9976959105       -0.4323179699
 H         -7.3575394506        0.6615898806       -0.3812007199
 H         -6.3209571904        1.9800266906       -0.9060550497
 C         -5.5735616906        0.0048314606       -1.3256592401
 H         -5.4899312707       -0.9569146895       -0.8132014602
 H         -6.1712089907       -0.1561509592       -2.2268234901
 C         -4.1719508306        0.4353298305       -1.7764276400
 H         -4.2161666505        1.4367158406       -2.2087229198
 H         -3.8444906607       -0.2610697794       -2.5536120401
 H         -4.5880697104        2.3338038699        2.2921913403
 H         -5.6251624803        3.2501688902        1.1917018605
 H         -3.1528809603        3.3895240700        0.7046926205
 H         -4.1384140803        2.8606699004       -0.6725891996
 O         -2.0047011105        1.2731439198        1.1867500701
 C         -1.1919039506        0.1597685897        1.3113489699
 O         -0.3989815606        0.2154990095        2.2739180999
 O         -2.4157875808       -1.7217002897       -1.5388105504
 C         -0.3616755908       -2.0457589103        0.5732230596
 C          0.7870999092       -1.9134574602       -0.3986366004
 C          0.6515834791       -2.2236702800       -1.7478900905
 C          1.7205288291       -2.0664073499       -2.6107309905
 C          2.9355181292       -1.5873965301       -2.1532452504
 C          3.0799076092       -1.2688476404       -0.8081984103
 C          2.0101674992       -1.4426233604        0.0591393296
 H          2.1378684892       -1.1999613606        1.1034024697
 N          4.3044492693       -0.7888091406       -0.3151421603
 S          4.3327977194        0.4814130192        0.7734982799
 O          5.6955423995        0.9650090091        0.7150605900
 O          3.8746406994        0.0385609890        2.0644424199
 C          3.2344905195        1.7005870894        0.0760472102
 C          1.9395779896        1.8227452795        0.5348808502
 C          1.0990363897        2.7400091997       -0.0775687097
 C          1.5622218797        3.5144801798       -1.1288539295
 C          2.8700817897        3.3848608398       -1.5728226496
 C          3.7134768896        2.4674914796       -0.9694804297
 H          4.7396848596        2.3447507695       -1.2760634797
 H          3.2306492898        3.9936999099       -2.3861541295
 H          0.9007760298        4.2243263200       -1.6001328294
 H          0.0840756397        2.8342238497        0.2768229504
 H          1.5942646395        1.2146182894        1.3564872201
 H          5.0178287493       -0.6717395306       -1.0203737903
 H          3.7676606292       -1.4628332601       -2.8292466404
 H          1.6043983891       -2.3128806998       -3.6552107305
 H         -0.3023084309       -2.5647023098       -2.1171674105
 H          0.0495337092       -1.9320523405        1.5857443796
 C         -1.0380042010       -3.3989932602        0.4843005593
 C         -0.3354644411       -4.5941862203        1.0514297191
 C         -1.5493841211       -4.0428743303        1.7360736792
 H         -2.4701748211       -4.6047790102        1.6880462591
 H         -1.4123052210       -3.5098307905        2.6662435893
 H         -0.4208785312       -5.5369124602        0.5333855190
 H          0.6254874089       -4.4334905505        1.5174775191
 H         -1.6222062110       -3.5363823900       -0.4153700407
