  62
        -98.94243065
 C          1.1725984007        1.6791591992        0.2167578498
 C          1.5646230705        0.6833644591        1.1393287198
 C          2.8035645901       -0.0600601416        0.8442380795
 C          3.4901070998        0.2483296179       -0.2715526508
 C          4.7560944893       -0.3747633928       -0.7985497812
 C          4.5158250283       -1.7419338528       -1.4541758309
 C          3.6408583181       -2.6948789022       -0.6444252504
 H          2.6507844084       -2.2548270617       -0.5048065701
 H          3.4986722774       -3.6010027422       -1.2402283602
 C          4.2155606184       -3.1121180823        0.7079818194
 H          3.5559438882       -3.8867507819        1.1077523298
 H          5.2003011182       -3.5599198628        0.5556486991
 C          4.3359088994       -2.0065938722        1.7611322392
 H          4.4668603495       -2.4958752721        2.7306842492
 H          5.2221380597       -1.3980569327        1.6005246588
 C          3.1048498999       -1.1149739215        1.8807437695
 H          2.2101777496       -1.7473380011        1.9367841800
 H          3.1454403205       -0.5831840414        2.8389034794
 H          4.0259204780       -1.5768218027       -2.4171611607
 H          5.4851476580       -2.2075250633       -1.6430974712
 H          5.1470968293        0.3089540169       -1.5556299915
 H          5.4960712695       -0.4530605531       -0.0077232815
 O          3.0715868799        1.2160791380       -1.1375808008
 C          1.8968354604        1.9206145186       -0.9490283205
 O          1.6221218004        2.7187146086       -1.8658943705
 O          0.8968781408        0.4104059096        2.1752064301
 C         -0.1418215588        2.4043373699        0.4367408002
 C         -1.1536208395        1.9428230203       -0.5857188493
 C         -2.0682919793        2.7831493306       -1.2074885491
 C         -2.9781113999        2.2712528509       -2.1175604087
 C         -3.0163467807        0.9191975709       -2.4081876784
 C         -2.1080780509        0.0697555506       -1.7865281787
 C         -1.1881279503        0.5897887502       -0.8923159491
 H         -0.4707927204       -0.0761837401       -0.4403824193
 N         -2.0968059817       -1.3101459295       -2.0382831084
 S         -1.7370556718       -2.3664615395       -0.7899812184
 O         -0.3256669916       -2.3480124902       -0.4999327190
 O         -2.2685787526       -3.6362586193       -1.2396757980
 C         -2.7000920209       -1.7731199588        0.5901676919
 C         -4.0700400910       -1.9400641281        0.5072340524
 C         -4.8722044304       -1.4533996475        1.5251056426
 C         -4.2937585697       -0.8041643176        2.6057658723
 C         -2.9188964995       -0.6491537383        2.6767328118
 C         -2.1088764502       -1.1363681289        1.6615638515
 H         -1.0371688201       -1.0152828495        1.7009855211
 H         -2.4603452690       -0.1460454884        3.5132223615
 H         -4.9163900492       -0.4189571472        3.3978236125
 H         -5.9417368705       -1.5780555870        1.4729591631
 H         -4.4790782216       -2.4613421180       -0.3430717474
 H         -2.8523285321       -1.6487087592       -2.6150876681
 H         -3.7309879912        0.5249739612       -3.1140937981
 H         -3.6758765097        2.9362983712       -2.6032139585
 H         -2.0632109087        3.8380846807       -0.9875999393
 H         -0.4959204286        2.0673229102        1.4235368204
 C          0.0463629119        3.9051386798        0.4744344599
 C         -0.8648302973        4.7573842504        1.3052358801
 C          0.5536269027        4.5382332897        1.7346145396
 H          1.2529043131        5.3568232894        1.6545765792
 H          0.7399247827        3.8872249798        2.5764492597
 H         -1.1400576370        5.7324172005        0.9324457801
 H         -1.6438533774        4.2605773309        1.8634368205
 H          0.4086390518        4.3037528495       -0.4659628003
