  62
        -98.94443886
 C          1.9564667385       -1.1090293599        0.1995351484
 C          2.4259252335        0.0626516389        0.8401252556
 C          3.8804974959        0.2748225033        0.7951875489
 C          4.6629313212       -0.6356749254        0.1875946135
 C          6.1496637509       -0.5153091115        0.0218884534
 C          6.5060999206        0.1798702184       -1.2996833467
 C          5.7369793536        1.4786641629       -1.5418372592
 H          6.0911139368        1.8947384529       -2.4874946835
 H          4.6768128424        1.2479146823       -1.6690520676
 C          5.8952002212        2.5267106290       -0.4314692218
 H          6.7700996342        2.2936074030        0.1765228461
 H          6.0708259598        3.5012430879       -0.8918855398
 C          4.6734626765        2.6776273706        0.4770005022
 H          3.7768299990        2.8185241968       -0.1322663929
 H          4.8056399168        3.5817134866        1.0774732786
 C          4.4167787601        1.5177886337        1.4474913155
 H          5.3273006846        1.2984172739        2.0089110077
 H          3.6462934070        1.8406040531        2.1540455687
 H          7.5783716936        0.3837544411       -1.3040630689
 H          6.2869830735       -0.5058061479       -2.1213978555
 H          6.5593966427        0.0435892794        0.8608950296
 H          6.5781430260       -1.5189428834        0.0213796232
 O          4.1757175057       -1.7600596321       -0.3967139493
 C          2.8152245120       -2.0186699648       -0.4174508265
 O          2.4992329743       -3.0713903238       -1.0077310553
 H         -1.6357075055        0.1187502076        1.1471476085
 C         -1.3168804867        0.3953108873        0.1569404279
 C         -0.2742854950       -0.2708123604       -0.4659784637
 C          0.1142519230        0.1399018630       -1.7396155480
 C         -0.5114058386        1.2015230909       -2.3619154368
 C         -1.5473096919        1.8703460946       -1.7325759392
 C         -1.9475694363        1.4658786309       -0.4654295290
 N         -2.9811288823        2.1427005105        0.2004130520
 S         -4.1673114709        1.3091364734        1.0294445617
 O         -5.2102931258        2.2877292728        1.2441379874
 O         -3.6215150565        0.6895842848        2.2091217839
 C         -4.7284941089        0.0703694430       -0.1239489529
 C         -4.2260123830       -1.2126214743       -0.0512691450
 C         -4.6273552781       -2.1423301391       -0.9978136015
 C         -5.5176637700       -1.7752039731       -1.9947438295
 C         -6.0171368769       -0.4826500594       -2.0513073231
 C         -5.6168184886        0.4520631833       -1.1108498340
 H         -5.9898036959        1.4634534421       -1.1124271352
 H         -6.7137116262       -0.2019719083       -2.8247814103
 H         -5.8259833446       -2.5021210855       -2.7294972945
 H         -4.2418182817       -3.1485176175       -0.9533777729
 H         -3.5399259846       -1.4629935491        0.7406459290
 H         -3.3787403236        2.9115885577       -0.3187378151
 H         -2.0315489671        2.7071914920       -2.2124778413
 H         -0.1929329343        1.5122466350       -3.3456167192
 H          0.9263264552       -0.3818729259       -2.2283698761
 C          0.4690003247       -1.4169491515        0.1751466392
 H          0.3547971705       -2.3026898066       -0.4666362163
 C         -0.0147540085       -1.7614412183        1.5676164519
 C         -1.1669709026       -2.7006340266        1.7532360301
 C          0.2234149632       -3.1427139646        2.0963421817
 H          0.4895638008       -3.2577202604        3.1363778956
 H          0.7137750350       -3.8465042952        1.4393023563
 H         -1.8614106295       -2.5113020590        2.5587834359
 H         -1.6167557709       -3.1176774915        0.8645934981
 H          0.0919541415       -0.9391320675        2.2661837521
 O          1.6744714250        0.8904365306        1.4185642335
