  62
        -98.93133266
 C         -2.2320835536       -0.6119015204        0.1589652875
 C         -3.5054672217       -1.0060087223        0.6369216426
 C         -4.6886839921       -0.4572294553       -0.0536529415
 C         -4.4983143228        0.3982180863       -1.0748333708
 C         -5.5362824339        1.1099540836       -1.9011806133
 C         -6.1769363843        2.2922983836       -1.1562095078
 C         -6.5506211623        2.0102760627        0.2966898358
 H         -6.8885051192        2.9504051506        0.7406665444
 H         -5.6580499699        1.6977816703        0.8418171378
 C         -7.6561775455        0.9762738871        0.4961972000
 H         -8.5583399952        1.3126704795       -0.0195793972
 H         -7.8785676619        0.9417923973        1.5657921006
 C         -7.3343228407       -0.4461364402        0.0331759582
 H         -7.4130182402       -0.5347834007       -1.0470089712
 H         -8.0983937175       -1.1058379298        0.4547385254
 C         -5.9877119330       -0.9825406708        0.5088299092
 H         -5.9649981093       -2.0661137221        0.3398017186
 H         -5.9160001507       -0.8612025035        1.5956993798
 H         -7.0636469113        2.6079787782       -1.7083893808
 H         -5.4630971096        3.1195855950       -1.1611322733
 H         -6.2926276773        0.4065149159       -2.2363769964
 H         -5.0228953137        1.4935181769       -2.7856427757
 O         -3.2533783895        0.7803805237       -1.4776152031
 C         -2.0954985374        0.3035666760       -0.8848350709
 O         -1.0508594907        0.7710222846       -1.3746234072
 O         -3.6572190326       -1.7851646772        1.6165834957
 C         -1.0117450489       -1.1793224428        0.8600452835
 C         -0.0151683283       -0.0887365801        1.1584973103
 C         -0.3641067837        0.9086086547        2.0659989538
 C          0.5176989708        1.9268778990        2.3705724452
 C          1.7735164336        1.9630785920        1.7903719136
 C          2.1277554545        0.9781545010        0.8765084217
 C          1.2353715501       -0.0382887733        0.5653741205
 H          1.5289654274       -0.7762567020       -0.1622096215
 N          3.3820441308        1.0047670976        0.2472153343
 S          4.1303352241       -0.4574274596       -0.1324851868
 O          3.6411312470       -0.9299491253       -1.4029171068
 O          4.0130090193       -1.3771946560        0.9776466731
 C          5.8206937080        0.0850696174       -0.3074862268
 C          6.2004252286        0.6941549906       -1.4888939459
 C          7.5042814321        1.1444402324       -1.6212328651
 C          8.4017682249        0.9794073955       -0.5764604364
 C          8.0067471474        0.3649309785        0.6022516529
 C          6.7035785516       -0.0864086258        0.7419233876
 H          6.3533055960       -0.5766640017        1.6359709407
 H          8.7077084687        0.2351792677        1.4110075877
 H          9.4162469370        1.3296673117       -0.6831280443
 H          7.8155539910        1.6205433196       -2.5370382726
 H          5.4705112143        0.7918947157       -2.2757724160
 H          4.0240851775        1.6624796386        0.6673108372
 H          2.4666758972        2.7547230422        2.0315144203
 H          0.2306017966        2.6947611045        3.0733271440
 H         -1.3434768579        0.8758854373        2.5245813782
 H         -1.3992181443       -1.5549775736        1.8226608828
 C         -0.3854897985       -2.3718328581        0.1532200968
 C         -1.2226534271       -3.3396277632       -0.6264639749
 C         -0.2523413895       -2.4464593435       -1.3368797659
 H          0.6501216041       -2.8780176333       -1.7461089174
 H         -0.6355999461       -1.6206879283       -1.9159662411
 H         -0.9956803659       -4.3923605626       -0.5508686708
 H         -2.2768647316       -3.1233856148       -0.7209961471
 H          0.4311316929       -2.7974063698        0.7307133173
