  62
        -98.93651242
 C         -2.5828521100       -1.2184083998        0.2757582314
 C         -2.6981436399       -0.3675096208       -0.8473638694
 C         -3.9062568598        0.4781626093       -0.9053003801
 C         -4.8121550798        0.3969058603        0.0842732800
 C         -6.0794135797        1.1915529406        0.2394703892
 C         -5.8374470395        2.4421624514        1.1015683381
 C         -5.3623777593        3.6731942306        0.3309115270
 H         -6.1871406893        4.0594175802       -0.2716994033
 H         -5.1077257492        4.4391265912        1.0669779864
 C         -4.1540067094        3.4470729297       -0.5813502828
 H         -3.6927501592        4.4178481894       -0.7728751936
 H         -3.4124762694        2.8338513300       -0.0657384322
 C         -4.5244715094        2.7996509585       -1.9239855522
 H         -5.6067277194        2.8294054186       -2.0483933822
 H         -4.1033286694        3.3914919777       -2.7394082127
 C         -4.0212338696        1.3621822183       -2.1174838109
 H         -3.0110154796        1.3846253278       -2.5386146309
 H         -4.6545415497        0.8589709677       -2.8560730605
 H         -6.7673480395        2.7008010220        1.6119903679
 H         -5.1043804195        2.1825742620        1.8696026884
 H         -6.4913126296        1.4549654298       -0.7300705010
 H         -6.7888870898        0.5437511912        0.7586094098
 O         -4.6547593499       -0.4300283887        1.1550186607
 C         -3.5477233400       -1.2438703588        1.2846816714
 O         -3.5350546401       -1.9369430279        2.3216536420
 O         -1.8413025899       -0.3087932117       -1.7687836594
 C         -1.3854900601       -2.1393649698        0.4455318922
 C         -0.1468224600       -1.3061076098        0.6677086815
 C          0.0666320101       -0.7394079587        1.9214952110
 C          1.1821464402        0.0390870113        2.1649469703
 C          2.1060271802        0.2751116403        1.1611651501
 C          1.8979550001       -0.2779382508       -0.0942360994
 C          0.7814930500       -1.0685616808       -0.3331893287
 H          0.6298435200       -1.4850922617       -1.3166092084
 N          2.8330374902       -0.0294342718       -1.1192742097
 S          4.4019920401       -0.5713756618       -0.8518524392
 O          4.9766994201       -0.7511414630       -2.1673341490
 O          4.4168226499       -1.7250893710        0.0186300918
 C          5.2035907903        0.8016466588       -0.0506938504
 C          5.7203481902        0.6474415499        1.2207782797
 C          6.3485983504        1.7258281903        1.8241212688
 C          6.4483590506        2.9325538997        1.1486167277
 C          5.9256714206        3.0704556686       -0.1288322924
 C          5.2978139804        1.9958610282       -0.7381950715
 H          4.8842386704        2.0588868274       -1.7309236415
 H          6.0059356607        4.0103890382       -0.6508009432
 H          6.9371499907        3.7704510701        1.6202244870
 H          6.7561977404        1.6203521511        2.8167184989
 H          5.6150473501       -0.3085953197        1.7082168006
 H          2.5120570001       -0.3316888626       -2.0283998694
 H          2.9763418403        0.8850320704        1.3412269395
 H          1.3348640402        0.4672628822        3.1439869099
 H         -0.6597010600       -0.9196727479        2.7025021211
 H         -1.5754061102       -2.7077218490        1.3662573727
 C         -1.2669713103       -3.1137860409       -0.7080299869
 C         -0.3755565104       -4.3100573009       -0.5681611759
 C         -1.8644362605       -4.4807451207       -0.5760410557
 H         -2.3276928805       -4.9260954114       -1.4437086153
 H         -2.3567609305       -4.7233174098        0.3543891545
 H          0.1860716895       -4.6411750317       -1.4287062256
 H          0.1470433395       -4.4345044101        0.3685245642
 H         -1.3312811302       -2.6390766217       -1.6795333474
