  62
        -98.94269806
 C         -0.9441429406       -1.2991382065       -0.4162656768
 C         -1.9053113578       -1.4503038147        0.6169438302
 C         -2.8712007863       -0.3576319181        0.7816036093
 C         -2.7842403871        0.7170823672       -0.0226472349
 C         -3.7440762719        1.8704990753       -0.0191487967
 C         -4.9034392722        1.6304522208       -0.9968569210
 C         -5.5676870315        0.2618783498       -0.8477451940
 H         -6.3879319140        0.2176761024       -1.5676725581
 H         -4.8522886555       -0.5144948239       -1.1287305416
 C         -6.1060416507       -0.0323259540        0.5593399518
 H         -7.1060604927       -0.4619068722        0.4693578052
 H         -6.2025895516        0.8972723399        1.1212654501
 C         -5.2650112975       -1.0251751189        1.3637559889
 H         -5.0897328240       -1.9244951927        0.7678216809
 H         -5.8405902892       -1.3240667058        2.2439308943
 C         -3.9099030932       -0.5033035843        1.8579288915
 H         -4.0508638752        0.4411726795        2.3869955918
 H         -3.5090624591       -1.2371745673        2.5631496836
 H         -5.6479264911        2.4149541235       -0.8493440485
 H         -4.5193145522        1.7134792593       -2.0161449986
 H         -4.1283466989        2.0141369713        0.9886034094
 H         -3.2047693751        2.7660931948       -0.3281713675
 O         -1.8323982335        0.8456787141       -0.9782480027
 C         -0.8876441180       -0.1502463013       -1.2074452616
 O         -0.0942262906        0.1263030602       -2.1241537503
 H          1.4938904355       -0.1933895256       -0.1782253609
 C          1.8648695647       -1.0201121067        0.4070920291
 C          1.2367880552       -2.2542505641        0.3218498923
 C          1.7264810269       -3.3095397741        1.0828523890
 C          2.8285516864       -3.1331919700        1.9003680646
 C          3.4647272648       -1.9070823641        1.9673719689
 C          2.9771889467       -0.8423861118        1.2168534948
 N          3.5743466976        0.4208463254        1.2944230969
 S          3.5425055615        1.4708637552       -0.0058669125
 O          3.7180632240        0.7732149402       -1.2571463552
 O          4.5645062929        2.4483049298        0.3119591568
 C          1.9577576431        2.2724543651        0.0916968131
 C          1.3173052377        2.6507576985       -1.0703047647
 C          0.1243746276        3.3505571296       -0.9786004861
 C         -0.4016826959        3.6575315811        0.2656177691
 C          0.2492919076        3.2613316398        1.4238882760
 C          1.4443325323        2.5667623990        1.3396114209
 H          1.9789676700        2.2458893805        2.2183434247
 H         -0.1701520059        3.4928870576        2.3898637858
 H         -1.3258609611        4.2098382839        0.3353289928
 H         -0.3906538009        3.6414728266       -1.8800505724
 H          1.7453669426        2.3730375550       -2.0201005889
 H          4.4349006179        0.4713320373        1.8188052780
 H          4.3280201200       -1.7684692219        2.5999834223
 H          3.1997455454       -3.9590458367        2.4879071897
 H          1.2294098764       -4.2674232212        1.0396928320
 C          0.0437396766       -2.4402132245       -0.5809012131
 H         -0.4937280960       -3.3355180135       -0.2274909402
 C          0.4464413313       -2.7009071502       -2.0248312650
 C          1.7427119939       -2.2494489565       -2.6200197120
 C          1.5154091276       -3.7040724534       -2.3451497981
 H          1.3649816810       -4.3704061277       -3.1811539700
 H          2.0516312326       -4.1445462635       -1.5181977871
 H          2.4350877085       -1.6987632100       -2.0014448618
 H          1.7253776034       -1.9021004577       -3.6420645480
 H         -0.4128377852       -2.6789484368       -2.6884246249
 O         -1.9565546287       -2.4663666540        1.3616771076
