  62
        -98.94352692
 C         -1.8432712522       -0.3039822207       -0.2633102558
 C         -2.9791163518       -0.5627877215       -1.0661373097
 C         -4.2685940373       -0.5938983562       -0.3635787317
 C         -4.2960824393       -0.4000051699        0.9679869449
 C         -5.5440288516       -0.3564301358        1.8005598403
 C         -6.0849412945        1.0755336697        1.9166585695
 C         -6.1980866452        1.8036114074        0.5772727885
 H         -6.6178970875        2.7915369798        0.7785539757
 H         -5.1965191367        1.9569627951        0.1691287491
 C         -7.0640862874        1.0832848175       -0.4656027170
 H         -7.7228277746        1.8141817372       -0.9393621346
 H         -7.6996523312        0.3456485416        0.0257019661
 C         -6.2738565719        0.4044739471       -1.5859015550
 H         -5.5681346637        1.1169865903       -2.0203964482
 H         -6.9765327028        0.1189956362       -2.3733808173
 C         -5.4991049076       -0.8573453070       -1.1853235643
 H         -6.1668160171       -1.5508828326       -0.6699442169
 H         -5.1482926769       -1.3371112777       -2.1039299351
 H         -5.4138666490        1.6474438959        2.5615056876
 H         -7.0650246857        1.0362468898        2.3955356908
 H         -5.3043785020       -0.7269503199        2.7986225243
 H         -6.2955279487       -1.0047077180        1.3540210752
 O         -3.1813514014       -0.1726350942        1.7084119610
 C         -1.9283956319       -0.1110570630        1.1157216990
 O         -0.9945658249        0.1132435950        1.9076636166
 O         -2.9161220230       -0.7651359552       -2.3094267406
 C         -0.4770937120       -0.2452495796       -0.9198627309
 C          0.4525060374       -1.2717379343       -0.3209546416
 C         -0.0264700260       -2.5533730303       -0.0603978633
 C          0.7959243383       -3.5186089120        0.4857276831
 C          2.1213277238       -3.2344851143        0.7644855320
 C          2.6153319322       -1.9654834249        0.4926424601
 C          1.7814569736       -0.9923711107       -0.0425198995
 H          2.1853069317       -0.0144885541       -0.2448355567
 N          3.9511789920       -1.6429082967        0.7708761978
 S          4.8265839763       -0.6961079022       -0.2933675032
 O          4.4196952301       -0.9140810019       -1.6617813441
 O          6.2106912686       -0.9937322677        0.0102434069
 C          4.4860669387        0.9828148498        0.1906165423
 C          4.4116224767        1.9553225107       -0.7867867748
 C          4.1966773208        3.2718256471       -0.4093294509
 C          4.0605084217        3.5908866848        0.9327391788
 C          4.1399482625        2.6024452027        1.9020595070
 C          4.3595689865        1.2853102341        1.5318069822
 H          4.4231800422        0.4937623208        2.2595066622
 H          4.0299243421        2.8535674665        2.9447742905
 H          3.8897307872        4.6151497920        1.2246019098
 H          4.1351275436        4.0417347912       -1.1622362555
 H          4.5114215446        1.6610364720       -1.8195249194
 H          4.5058230438       -2.4006146010        1.1414642735
 H          2.7666935733       -3.9882303548        1.1895077101
 H          0.4052710105       -4.5042187527        0.6903138891
 H         -1.0593541925       -2.7814582618       -0.2862850425
 H         -0.6458110242       -0.5172894370       -1.9732797147
 C          0.0660454891        1.1677467785       -0.8645739514
 C          0.9711827139        1.6789241173       -1.9439253086
 C         -0.4400378204        2.1739762097       -1.8528766097
 H         -0.6116651326        3.1857636462       -1.5178915370
 H         -1.1531055502        1.8297311833       -2.5878901664
 H          1.7680907586        2.3522882615       -1.6668264612
 H          1.2259427065        1.0024921598       -2.7461741122
 H          0.2393139664        1.5050962915        0.1514678541
