  62
        -98.93799038
 C         -2.6220507692       -1.0066371195        0.5128947386
 C         -2.8746525193        0.1892070307        1.2358617383
 C         -4.1522540693        0.8561270206        0.9691240279
 C         -5.0128596491        0.3140066505        0.0887664678
 C         -6.3736774790        0.8484535104       -0.2667599725
 C         -6.3550355988        1.9444973202       -1.3407285827
 C         -5.8199361589        3.2994648003       -0.8760739529
 H         -6.0655920488        4.0249134201       -1.6541728931
 H         -6.3441247691        3.6043014805        0.0302430869
 C         -4.3045145790        3.3312509003       -0.6328149227
 H         -3.8803522889        4.2259092902       -1.0942888628
 H         -3.8385796989        2.4708187002       -1.1191252124
 C         -3.8979252092        3.3461896506        0.8408478774
 H         -4.2453592893        4.2708370407        1.3070956072
 H         -2.8063194792        3.3309155206        0.8937755376
 C         -4.4285731194        2.1594951608        1.6558786376
 H         -3.9101646796        2.1446230810        2.6176704977
 H         -5.4972724494        2.2747098008        1.8359191773
 H         -7.3830627588        2.0817296901       -1.6839506730
 H         -5.7655696187        1.5915048400       -2.1901278026
 H         -6.8642648292        1.2256584006        0.6310505973
 H         -6.9489996790        0.0022474203       -0.6484428825
 O         -4.7389782390       -0.8340303397       -0.5816235119
 C         -3.5384607590       -1.5110141596       -0.4105456715
 O         -3.4407891389       -2.5261909998       -1.1271889813
 O         -2.0700059395        0.6683995509        2.0794934083
 C         -1.3025813193       -1.7034369694        0.7983164390
 C         -0.2609545091       -1.3586804596       -0.2403324109
 C         -0.3871203788       -1.7703459699       -1.5628378909
 C          0.5875939314       -1.4499201601       -2.4903496207
 C          1.7034097313       -0.7184044200       -2.1230924707
 C          1.8399521411       -0.3033694798       -0.8054700907
 C          0.8608679309       -0.6289230596        0.1256600291
 H          0.9629391207       -0.2940456094        1.1493081691
 N          2.9625143310        0.4542397703       -0.4268555507
 S          4.4619117511       -0.0311350398       -1.0385080203
 O          4.6205244013        0.5328140399       -2.3556449804
 O          4.5910165611       -1.4679365098       -0.9470589500
 C          5.5766087209        0.7659639404        0.1004070397
 C          5.9060226309        2.0925735704       -0.1031279705
 C          6.7581058408        2.7154718505        0.7949219795
 C          7.2627005406        2.0064818208        1.8750541398
 C          6.9235354405        0.6753199408        2.0654826700
 C          6.0710275507        0.0464090906        1.1718778300
 H          5.7887293707       -0.9892184394        1.2746582901
 H          7.3199310904        0.1258256110        2.9041174902
 H          7.9274080004        2.4932132309        2.5711804598
 H          7.0267045908        3.7493176305        0.6492960494
 H          5.4984428411        2.6008089402       -0.9613419307
 H          3.0030385108        0.6057104105        0.5717703993
 H          2.4719603214       -0.4698993102       -2.8375075906
 H          0.4784783515       -1.7749469003       -3.5144733407
 H         -1.2604764788       -2.3310145300       -1.8584947509
 H         -0.9656588594       -1.2841898792        1.7562633589
 C         -1.4309769493       -3.2056675694        0.9566586192
 C         -0.3699935794       -3.9460768692        1.7122091196
 C         -1.7347921396       -3.7761749891        2.3079263293
 H         -2.3843073296       -4.6363469691        2.3684645094
 H         -1.8509222597       -3.0832789389        3.1286793991
 H         -0.0773696894       -4.9243447093        1.3631865199
 H          0.4413987905       -3.3688684291        2.1294966596
 H         -1.8746785191       -3.6950147196        0.0999674093
