  62
        -98.93563186
 C         -2.1802890318       -0.7965795443       -0.3545255435
 C         -3.4055979549       -0.9053307116        0.3467250422
 C         -4.1493644152        0.3428773456        0.5872896626
 C         -3.6292375066        1.5106636908        0.1656480337
 C         -4.1250665788        2.9343905485        0.3116382595
 C         -5.5606719101        3.2217772235        0.7435320417
 C         -6.6271146886        2.8191263511       -0.2746201548
 H         -6.5511446011        3.4848142110       -1.1380376269
 H         -7.6082698557        2.9739791849        0.1793242941
 C         -6.5384168620        1.3849339716       -0.7900536401
 H         -5.5992331563        1.2464021454       -1.3293960409
 H         -7.3478260577        1.2379924562       -1.5102189657
 C         -6.6630074920        0.2983286850        0.2759748013
 H         -6.7429323268       -0.6618040878       -0.2407342191
 H         -7.5808914350        0.4474023296        0.8477744816
 C         -5.4842757894        0.1968474466        1.2595616849
 H         -5.4970428801       -0.8043385176        1.7000483718
 H         -5.5845496623        0.9112201012        2.0732389513
 H         -5.6314962002        4.3037224596        0.8849511876
 H         -5.7617909250        2.7655983796        1.7083336967
 H         -3.9390952875        3.4146578371       -0.6543434541
 H         -3.4455804615        3.4109545861        1.0272338956
 O         -2.4283013132        1.5693314144       -0.4804622793
 C         -1.6800781409        0.4381269831       -0.7631649047
 O         -0.6216600335        0.6760256849       -1.3766139660
 O         -3.8624062293       -2.0044408086        0.7600961699
 C         -1.3852389040       -2.0672142789       -0.6084594269
 C         -0.1520730396       -2.0212052836        0.2591530426
 C         -0.2430581819       -2.4108355363        1.5925486568
 C          0.8467895861       -2.3008439232        2.4356017374
 C          2.0473498702       -1.7923097480        1.9707182548
 C          2.1440627761       -1.3917527748        0.6453475762
 C          1.0540446725       -1.5212296057       -0.2056073857
 H          1.1370334798       -1.1894745255       -1.2283656344
 N          3.3582056116       -0.8638445960        0.1587920620
 S          4.0876271841        0.3276811510        1.1109206367
 O          4.8072329379       -0.3236056929        2.1778238638
 O          3.1129838767        1.3142530526        1.5221276943
 C          5.2409752850        1.0302860771       -0.0510729459
 C          6.5069535184        0.4863875148       -0.1545655673
 C          7.3897175230        1.0179102466       -1.0812858045
 C          6.9934987879        2.0766173932       -1.8847112527
 C          5.7189920661        2.6114855483       -1.7695177055
 C          4.8305994867        2.0840384469       -0.8456014778
 H          3.8323194283        2.4730320461       -0.7178143464
 H          5.4131151860        3.4352172341       -2.3943678154
 H          7.6820340980        2.4901324328       -2.6045367846
 H          8.3816996891        0.6062451653       -1.1737292758
 H          6.7710384661       -0.3302759972        0.4965642518
 H          3.2487396676       -0.5215714588       -0.7873241745
 H          2.8996780523       -1.6806641187        2.6212885536
 H          0.7617619517       -2.6066761334        3.4677497151
 H         -1.1873039151       -2.7839463130        1.9642956494
 H         -2.0238976923       -2.8854355584       -0.2501286940
 C         -1.0960360359       -2.2817790195       -2.0790342355
 C         -0.6193507992       -3.6252731426       -2.5414846688
 C         -2.0031855439       -3.1628922363       -2.8823708045
 H         -2.2184024292       -2.8846462944       -3.9031869014
 H         -2.8366601712       -3.6210651640       -2.3705089053
 H          0.1171910998       -3.6689998143       -3.3289613963
 H         -0.5118567523       -4.3972426104       -1.7946628428
 H         -0.6987899667       -1.4036337366       -2.5729549929
