  62
        -98.94114905
 C          1.9500937280        0.9043722519       -0.2166521714
 C          2.5859626789        0.3233561580        0.9112961192
 C          2.9190635163       -1.1021527384        0.8202734382
 C          2.5703172407       -1.7834224255       -0.2857303827
 C          2.8757482597       -3.2320036182       -0.5339537229
 C          4.2182684453       -3.4027525350       -1.2588173499
 C          5.3661689744       -2.6184079550       -0.6230858416
 H          6.2675386311       -2.8375049808       -1.1993749960
 H          5.1673269505       -1.5496048725       -0.7298065299
 C          5.6132451661       -2.9422499033        0.8569085558
 H          6.6871508756       -3.0614765764        1.0146288099
 H          5.1401966613       -3.8910427546        1.1120697108
 C          5.1373324108       -1.8620577555        1.8299966889
 H          5.5518968856       -2.0864415962        2.8162894564
 H          5.5328640907       -0.8912736993        1.5213484166
 C          3.6174553151       -1.7318165279        1.9929773245
 H          3.1847900423       -2.7090380488        2.2175094451
 H          3.4283472792       -1.0690965945        2.8425210454
 H          4.0993648770       -3.0615375540       -2.2898031329
 H          4.4668728702       -4.4654068600       -1.2784473437
 H          2.8934474298       -3.7598765787        0.4177401380
 H          2.0790849351       -3.6473239286       -1.1538134596
 O          1.9374195459       -1.2059518921       -1.3363066102
 C          1.6084266111        0.1439347905       -1.3357668864
 O          1.0428879982        0.5113719162       -2.3849329909
 H         -0.7320428216        1.1641478844       -0.8275232007
 C         -0.8575039859        1.8195681475        0.0214550539
 C          0.2229211891        2.5304499270        0.5235278905
 C          0.0220107280        3.3740373096        1.6099098099
 C         -1.2286922155        3.4907416646        2.1893481225
 C         -2.2947720601        2.7514658017        1.7112015382
 C         -2.1047965086        1.9091481852        0.6210150070
 N         -3.1646664595        1.1457312852        0.1073765987
 S         -2.8206061381       -0.4201923062       -0.4328121309
 O         -1.7983147973       -1.0171758005        0.3973340389
 O         -2.5702933045       -0.3772561022       -1.8509198607
 C         -4.3933760462       -1.2099058079       -0.1348373272
 C         -4.5923639648       -1.8913083023        1.0510392827
 C         -5.8292298304       -2.4680932274        1.2938389698
 C         -6.8419031926       -2.3512047497        0.3535330956
 C         -6.6271799031       -1.6649347083       -0.8325631476
 C         -5.3925324688       -1.0867771404       -1.0819547405
 H         -5.1741704224       -0.5521732823       -1.9917289318
 H         -7.4152518685       -1.5786792697       -1.5630134931
 H         -7.8034955701       -2.8003831050        0.5451632450
 H         -5.9972099791       -3.0052885410        2.2133015558
 H         -3.7722174547       -1.9628390946        1.7475430094
 H         -3.9877288731        1.1670443124        0.6942865550
 H         -3.2664460293        2.8219006442        2.1759740146
 H         -1.3704547945        4.1479831729        3.0336167927
 H          0.8598215960        3.9234502040        2.0126907094
 C          1.5945162954        2.3758017735       -0.0919780582
 H          2.3227008048        2.7923001329        0.6187192708
 C          1.6824477759        3.1640138417       -1.3830590398
 C          1.9238773234        4.6415527403       -1.3193760879
 C          3.0023945869        3.7262040419       -1.8141708046
 H          3.2410426376        3.7230890957       -2.8668958884
 H          3.8535246341        3.5471616866       -1.1733255629
 H          1.4189803999        5.2742243566       -2.0327783597
 H          2.0483426907        5.0879825506       -0.3446670625
 H          1.0230269612        2.7924062842       -2.1566028577
 O          2.8710956385        0.9796830033        1.9501891357
