  62
        -98.94510629
 C          2.4494909639        1.1808424757       -0.0790662792
 C          3.5568879738        0.8576813236        0.7452100953
 C          4.4803270176       -0.1559265266        0.2209961788
 C          4.2290315996       -0.7164112530       -0.9761817988
 C          5.0523246490       -1.8031768484       -1.6033255492
 C          4.5266959741       -3.1925262186       -1.2160513170
 C          4.2948537006       -3.3696701430        0.2846430754
 H          3.4802060056       -2.7126990259        0.5988658989
 H          3.9559529069       -4.3960346142        0.4415746106
 C          5.5304230307       -3.0995056112        1.1547897059
 H          5.6125884874       -3.8925871535        1.9008981184
 H          6.4309724613       -3.1377272873        0.5409117004
 C          5.4918268846       -1.7733395480        1.9162798330
 H          6.2947231605       -1.7838117141        2.6580841969
 H          4.5463715516       -1.6900055829        2.4580548170
 C          5.6723943424       -0.5102671325        1.0650060477
 H          6.5663956039       -0.6083125943        0.4460229944
 H          5.8167398480        0.3321413473        1.7476362592
 H          5.2393322966       -3.9410766518       -1.5672013100
 H          3.5771109387       -3.3594170121       -1.7303094120
 H          4.9977161282       -1.6936015988       -2.6877566910
 H          6.0883042269       -1.6944824058       -1.2881893212
 O          3.1573131238       -0.3827373916       -1.7387815369
 C          2.2373201085        0.5647829814       -1.3123651040
 O          1.3075949175        0.7642725408       -2.1185936155
 O          3.7638151656        1.3957602475        1.8651777564
 C          1.4577277109        2.2139506127        0.4314209246
 C          0.1537249783        1.5131641100        0.7199379528
 C          0.0148750699        0.8005691030        1.9082743845
 C         -1.1409101527        0.0917899796        2.1750762564
 C         -2.1793017747        0.0692314883        1.2594974104
 C         -2.0425898861        0.7605602679        0.0640544879
 C         -0.8894235975        1.4916841913       -0.1917810596
 H         -0.7934409189        2.0146737147       -1.1299288117
 N         -3.0846993029        0.7378272568       -0.8781521572
 S         -3.8143382933       -0.7311436225       -1.2323675245
 O         -2.9139324514       -1.8446971794       -1.0408653675
 O         -4.3649934657       -0.5686362688       -2.5605305627
 C         -5.1563494349       -0.8207911806       -0.0631322916
 C         -5.3227420316       -1.9531953779        0.7097725323
 C         -6.3814437088       -2.0060046754        1.6033347311
 C         -7.2513293577       -0.9315059545        1.7067642241
 C         -7.0722250418        0.1976021880        0.9213988112
 C         -6.0166893587        0.2561950243        0.0256243245
 H         -5.8440697674        1.1135225107       -0.6031477495
 H         -7.7503910123        1.0315219385        1.0048542811
 H         -8.0734207175       -0.9744017477        2.4036196610
 H         -6.5218284370       -2.8833432199        2.2141606590
 H         -4.6174771573       -2.7617782374        0.5997769141
 H         -2.8651810892        1.2381156740       -1.7277769642
 H         -3.0784250872       -0.4918763984        1.4549096364
 H         -1.2360226662       -0.4520094285        3.1026925844
 H          0.8337456238        0.8008097847        2.6143430761
 H          1.8741263370        2.5674483169        1.3843078589
 C          1.3296593863        3.3926150005       -0.5101524558
 C          0.6845352113        4.6541900600       -0.0219457002
 C          2.1618870740        4.6147310074       -0.2688930958
 H          2.5578314955        5.1435232790       -1.1229833246
 H          2.8240452712        4.6071567015        0.5843367005
 H          0.0637932999        5.2142536975       -0.7044511265
 H          0.3419434873        4.6721146747        1.0014624996
 H          1.1671957848        3.1038266898       -1.5416307616
