  62
        -98.94350884
 C         -1.9648011086       -1.4442259856        0.1554716915
 C         -2.1919449140       -0.4997928642        1.1903034524
 C         -3.1923717266        0.5364614075        0.9176334204
 C         -3.8255690681        0.5522519504       -0.2694005678
 C         -4.9058365668        1.5129709337       -0.6868974829
 C         -4.3850394254        2.8534354943       -1.2222950607
 C         -3.8084485099        3.7951346322       -0.1647577665
 H         -3.6920936013        4.7729504399       -0.6362843904
 H         -4.5264151435        3.9105681237        0.6478586676
 C         -2.4506451616        3.3558072786        0.4005698049
 H         -2.0006159887        2.6157313771       -0.2650189986
 H         -1.7797863159        4.2173004635        0.4296235357
 C         -2.5071198280        2.7776705497        1.8148384321
 H         -2.8212505038        3.5536119675        2.5167859875
 H         -1.5015424858        2.4548591368        2.0967926723
 C         -3.4451511604        1.5739622031        1.9699123333
 H         -3.2538940757        1.1135767897        2.9425053549
 H         -4.4845683429        1.9005979613        1.9377654635
 H         -3.6298627284        2.6548535436       -1.9860485247
 H         -5.2242341331        3.3571460263       -1.7075397965
 H         -5.4674406256        1.0193287845       -1.4829394987
 H         -5.5791858669        1.6920458374        0.1521250170
 O         -3.5612172522       -0.3522073023       -1.2462058325
 C         -2.6195885108       -1.3582040885       -1.0740921950
 O         -2.4848384326       -2.0856893262       -2.0759268948
 H          1.1853296739       -1.5688529053        1.7286572665
 C          1.3841159710       -1.6844552273        0.6715944164
 C          0.3852040387       -2.1798182959       -0.1552547980
 C          0.6411483092       -2.2921798580       -1.5175031191
 C          1.8755109818       -1.9325950829       -2.0280840061
 C          2.8753521542       -1.4548763395       -1.1987574290
 C          2.6234434754       -1.3226896434        0.1602588999
 N          3.6283382132       -0.8310777960        1.0121942160
 S          4.4736207235        0.5321462153        0.5372470624
 O          5.4457782708        0.1731426175       -0.4642158456
 O          5.0005445002        1.0933383924        1.7603186501
 C          3.2432455912        1.6138144734       -0.1667620525
 C          3.2295124918        1.8614598278       -1.5239321480
 C          2.2318370628        2.6687296722       -2.0470948299
 C          1.2701644060        3.2100828846       -1.2085253954
 C          1.3019450159        2.9569704232        0.1542966026
 C          2.2940854165        2.1481024527        0.6819043570
 H          2.3482793926        1.9355363568        1.7376845521
 H          0.5544800491        3.3803254226        0.8057148382
 H          0.4915031925        3.8352392494       -1.6166358489
 H          2.2061045096        2.8704877544       -3.1058106159
 H          3.9977780120        1.4252992077       -2.1410187588
 H          3.3421177606       -0.7584907665        1.9776221882
 H          3.8457744693       -1.1852979938       -1.5823647667
 H          2.0636163505       -2.0280129270       -3.0866749587
 H         -0.1411467418       -2.6406213751       -2.1730576581
 C         -0.9536267720       -2.5429741793        0.4407888932
 H         -0.8390043395       -2.5446974675        1.5333850928
 C         -1.4148293996       -3.9201784017        0.0099747248
 C         -0.7369954612       -5.1226772315        0.5926760400
 C         -2.1424618658       -4.7876940539        0.9907603449
 H         -2.9455865178       -5.4118255831        0.6287074729
 H         -2.3117104663       -4.3920577360        1.9817983903
 H         -0.5719267258       -5.9791974063       -0.0425412323
 H          0.0486020250       -4.9531724688        1.3137310897
 H         -1.7316228355       -3.9714938088       -1.0228249254
 O         -1.5948785326       -0.5341671678        2.3002014804
