  62
        -98.94150219
 C         -1.6109510496       -1.1804917100        0.1669039812
 C         -1.6613060595        0.1632576503        0.6182235402
 C         -2.7455957894        0.9955442900        0.0833509895
 C         -3.6087159594        0.4565749995       -0.7969674601
 C         -4.7906320993        1.1684240591       -1.3872666607
 C         -6.0495217294        0.9560589699       -0.5351373506
 C         -5.8383988494        1.2256108709        0.9547274492
 H         -6.7996625794        1.0785719914        1.4519191092
 H         -5.1509615095        0.4787576812        1.3587447298
 C         -5.3057462793        2.6290073411        1.2761269682
 H         -5.4676905692        3.2910521605        0.4247885477
 H         -5.8742509993        3.0356762218        2.1151678179
 C         -3.8300166993        2.6703220913        1.6773185582
 H         -3.6179380492        3.6597503916        2.0914613675
 H         -3.6449902894        1.9394952118        2.4688261488
 C         -2.8215872393        2.4230412704        0.5480953885
 H         -3.0384817992        3.0900999198       -0.2890883720
 H         -1.8281776893        2.6660157105        0.9375565483
 H         -6.3772084994       -0.0794286502       -0.6526587699
 H         -6.8384421193        1.6070963997       -0.9160885611
 H         -4.5672275892        2.2306598791       -1.4646293515
 H         -4.9684322893        0.7688844784       -2.3870181604
 O         -3.5236092395       -0.8286062709       -1.2180887692
 C         -2.5266129396       -1.6829735706       -0.7590898385
 O         -2.5840680597       -2.8237881410       -1.2505626777
 H          1.9916188703       -1.1690297095        1.4041922813
 C          1.9229200504       -1.4281337602        0.3585104515
 C          0.7295402904       -1.8993854805       -0.1668540082
 C          0.6677080404       -2.2073925415       -1.5235227280
 C          1.7832693005       -2.0568394522       -2.3256510580
 C          2.9698805805       -1.5736711819       -1.8002646983
 C          3.0374750204       -1.2498131109       -0.4511480485
 N          4.2238615205       -0.7464604806        0.1122502111
 S          4.1493577305        0.6704634600        1.0075216801
 O          5.5270975606        1.0976850700        1.1193795499
 O          3.4576579105        0.4321188710        2.2467125303
 C          3.2522994307        1.8013329594       -0.0398542408
 C          3.9791606808        2.5269772686       -0.9651302512
 C          3.3090086009        3.3559661480       -1.8487405619
 C          1.9249918409        3.4351651482       -1.8026620120
 C          1.2116379808        2.6993461689       -0.8701426015
 C          1.8756198607        1.8734807295        0.0245429691
 H          1.3289395406        1.3026670401        0.7591810995
 H          0.1347292908        2.7521861291       -0.8275719016
 H          1.3987422810        4.0744820277       -2.4939112625
 H          3.8636645610        3.9330322475       -2.5709866523
 H          5.0537206408        2.4389613985       -0.9618050511
 H          4.9959002705       -0.6997389712       -0.5381657988
 H          3.8371560905       -1.4470858824       -2.4303044284
 H          1.7262202905       -2.3075315629       -3.3740786078
 H         -0.2636654596       -2.5656733217       -1.9360033678
 C         -0.4824579097       -2.0342476497        0.7190555118
 H         -0.2292733097       -1.5735690391        1.6877719115
 C         -0.8809310598       -3.4763729595        0.9968768429
 C         -0.2959972299       -4.6555769501        0.2845647838
 C          0.0802997700       -4.3831797791        1.7078561936
 H         -0.2951534601       -5.0352281585        2.4819488440
 H          1.0717817601       -3.9982613790        1.8974193733
 H         -0.9549306700       -5.4828408802        0.0693327343
 H          0.4453912101       -4.4809527307       -0.4786601163
 H         -1.9251374499       -3.5619029292        1.2792250929
 O         -0.8322511895        0.6435859508        1.4380748599
