  62
        -98.93822018
 C         -2.0739881728       -1.0877322424        0.2760267494
 C         -2.1110361638       -0.1493244770       -0.7852613089
 C         -2.3476319483        1.2505990984       -0.3908631562
 C         -2.4744913745        1.5672542199        0.9089685335
 C         -2.7579441646        2.9434796348        1.4370469043
 C         -4.2675619346        3.1925593839        1.5644741427
 C         -5.0619405072        2.8263071805        0.3108202389
 H         -5.0053346247        1.7463052043        0.1573306718
 H         -6.1083428431        3.0702857280        0.5059003452
 C         -4.5986167762        3.5426986791       -0.9651947218
 H         -5.4773340167        3.9034172628       -1.5037972463
 H         -3.9974573357        4.4139549151       -0.7031853470
 C         -3.8119837837        2.6610253993       -1.9370308812
 H         -3.7185443964        3.1974740855       -2.8850110629
 H         -4.3706447837        1.7426880922       -2.1341003008
 C         -2.3962651891        2.2741405820       -1.4904550674
 H         -1.8861921352        1.8175976564       -2.3443176911
 H         -1.8387547591        3.1690359583       -1.2044003079
 H         -4.6462496508        2.5949368800        2.3967409944
 H         -4.4242472281        4.2462045722        1.8023034921
 H         -2.2963276474        3.0320464188        2.4220343315
 H         -2.3098915770        3.6790420445        0.7715491118
 O         -2.4112241176        0.6437616076        1.9023117883
 C         -2.1931919723       -0.6900777356        1.6101811128
 O         -2.1428564433       -1.4312082619        2.6141615693
 H          0.3430442528       -1.0571156890       -0.6834123074
 C          0.6456167934       -1.9036625460       -0.0848070826
 C         -0.3040766110       -2.8001230641        0.3832761186
 C          0.1187424734       -3.8828559927        1.1450993624
 C          1.4601971771       -4.0545633975        1.4381805048
 C          2.3990324628       -3.1376840736        1.0017077873
 C          1.9853180586       -2.0514531221        0.2384081150
 N          2.9029736500       -1.0923298663       -0.2207589140
 S          2.3834372313        0.5181518755       -0.2608510125
 O          1.5778859369        0.8103705016        0.9038812788
 O          1.7864608804        0.7805796174       -1.5454464761
 C          3.9550556693        1.3563737042       -0.1546960985
 C          4.4143944076        1.7790918949        1.0783345315
 C          5.6540457455        2.3943949207        1.1571268199
 C          6.4107572822        2.5718219158        0.0085397409
 C          5.9363041056        2.1425324399       -1.2221467692
 C          4.6971977030        1.5278077990       -1.3081641893
 H          4.2817306434        1.1851473763       -2.2414668776
 H          6.5258335259        2.2846162596       -2.1133863052
 H          7.3751257797        3.0503167032        0.0728798690
 H          6.0233537027        2.7320171073        2.1120219075
 H          3.7867090769        1.6264717355        1.9418967665
 H          3.8134179588       -1.1795015817        0.2106064371
 H          3.4420103900       -3.2558967112        1.2531517587
 H          1.7756319212       -4.8987584610        2.0322179005
 H         -0.6142213755       -4.5767777334        1.5295746342
 C         -1.7664799163       -2.5665450605        0.0937085924
 H         -2.3397507139       -3.0897763361        0.8774391396
 C         -2.2034195502       -3.1381341288       -1.2457168738
 C         -1.2458540249       -3.4368281119       -2.3555945669
 C         -1.8817747175       -4.5608056875       -1.5975116800
 H         -2.6392924640       -5.1521921907       -2.0888988620
 H         -1.2578406671       -5.1162332813       -0.9141340383
 H         -1.5709228383       -3.2314189280       -3.3638517322
 H         -0.1994240211       -3.2307623546       -2.1897932886
 H         -3.1807747258       -2.7722567309       -1.5412986024
 O         -1.9678951281       -0.4378131308       -2.0011833120
