  62
        -98.93933265
 C         -1.4876607196       -0.7623683560       -0.4851898950
 C         -2.7866611871       -1.3133382984       -0.5451142809
 C         -3.9093321229       -0.3594802084       -0.4996219087
 C         -3.6522009241        0.9582040099       -0.3974269544
 C         -4.5802807091        2.1552659408       -0.3784152460
 C         -6.0785412335        1.9807946791       -0.1446398412
 C         -6.4552572836        1.4982787676        1.2556519789
 H         -6.2399780606        2.2982364881        1.9685730164
 H         -7.5319665546        1.3159896319        1.2762416615
 C         -5.7297910468        0.2446485687        1.7380864240
 H         -6.0897213696        0.0168235431        2.7452035890
 H         -4.6598743233        0.4478060526        1.8178275065
 C         -5.9356536371       -1.0014048897        0.8788918736
 H         -5.5025491570       -1.8482330637        1.4183749811
 H         -7.0037133866       -1.1937251520        0.7596341730
 C         -5.2853684058       -0.9605177332       -0.5151081903
 H         -5.1653606915       -1.9914137572       -0.8611453996
 H         -5.9211609673       -0.4483709340       -1.2334368195
 H         -6.5048695698        1.3273916097       -0.9000945999
 H         -6.5321894588        2.9655596926       -0.2865340179
 H         -4.1766075800        2.8317370088        0.3814854508
 H         -4.4376883323        2.6553740293       -1.3427342870
 O         -2.3765603417        1.4419575475       -0.3394240142
 C         -1.2687441545        0.6096211354       -0.3718205424
 O         -0.1777406046        1.2007894311       -0.2929625703
 H          2.4455167653       -1.2644943358       -0.3886938878
 C          1.9549370258       -1.2433621278        0.5688240825
 C          0.5906375613       -1.4617153952        0.6690436761
 C          0.0089987165       -1.4719461655        1.9348609974
 C          0.7703646270       -1.2447713419        3.0640627493
 C          2.1270629505       -0.9911365032        2.9569620988
 C          2.7199018186       -0.9942638280        1.7008623194
 N          4.0933217182       -0.7606688605        1.5613500950
 S          4.7242698777       -0.0738143031        0.1787152786
 O          4.7756956406       -1.0513118781       -0.8801850239
 O          6.0049337342        0.4516891718        0.6039397272
 C          3.6459610978        1.2712357572       -0.2759729977
 C          3.3504895214        2.2318511227        0.6693358545
 C          2.5345315621        3.2919453892        0.3130885785
 C          2.0337814674        3.3760886428       -0.9757964033
 C          2.3441768968        2.4067785817       -1.9147223396
 C          3.1565035031        1.3420600259       -1.5632196652
 H          3.4151594514        0.5613687309       -2.2617141603
 H          1.9466116179        2.4710369896       -2.9154687811
 H          1.3901853117        4.1973241458       -1.2487288451
 H          2.2839039083        4.0454327950        1.0425866059
 H          3.7574364842        2.1436901272        1.6638549416
 H          4.5696408132       -0.4539029649        2.3958666594
 H          2.7213916872       -0.7983039729        3.8368518865
 H          0.3037319656       -1.2539062520        4.0376949198
 H         -1.0538079787       -1.6543239845        2.0189431351
 C         -0.2831837335       -1.6832466877       -0.5398483793
 H         -0.6870861266       -2.7056517473       -0.4974489122
 C          0.4508960933       -1.4997394475       -1.8515081747
 C          1.2588148824       -2.6213136570       -2.4303437536
 C         -0.0342318348       -2.2193959589       -3.0725245700
 H         -0.0029682405       -1.7052645125       -4.0214132393
 H         -0.8872244090       -2.8722292997       -2.9577598957
 H          2.1856074926       -2.3862719806       -2.9326020081
 H          1.2853570325       -3.5513860905       -1.8827276578
 H          0.8167661354       -0.4865105123       -1.9800897751
 O         -3.0046800148       -2.5522727305       -0.6356271425
