  62
        -98.94306595
 C         -2.6884962823       -1.2006440201        0.1336415270
 C         -2.7010960021       -0.2018694421       -0.8694811266
 C         -3.8946047772        0.6527918367       -0.8974885115
 C         -4.8961439792        0.4343224687       -0.0260562150
 C         -6.1849018735        1.2069512292        0.0531072577
 C         -6.0863722653        2.5013899537        0.8720740589
 C         -5.3113435816        3.6374603650        0.2032691461
 H         -5.7057390315        3.8034378311       -0.7996784090
 H         -5.5054948723        4.5418351024        0.7833528016
 C         -3.7942679989        3.4133881980        0.1317697115
 H         -3.5080789140        2.6266122064        0.8336114108
 H         -3.2764121521        4.3229562512        0.4441201285
 C         -3.2711774524        3.0492628367       -1.2577924755
 H         -2.1951303014        2.8721238619       -1.1828170580
 H         -3.4291583711        3.8874445558       -1.9400658215
 C         -3.9150360918        1.7964060820       -1.8659435531
 H         -4.9353815608        2.0119510310       -2.1821264478
 H         -3.3307782748        1.5008983400       -2.7407597484
 H         -7.1058498015        2.8464610306        1.0592323584
 H         -5.6318521246        2.2694901060        1.8380903561
 H         -6.5369325688        1.4369770913       -0.9528313943
 H         -6.9122313122        0.5497088678        0.5346045009
 O         -4.8572162632       -0.5589157698        0.9025770222
 C         -3.7476944344       -1.3799907151        1.0225759433
 O         -3.8245327248       -2.2190912427        1.9434455491
 O         -1.7700135135       -0.0325979911       -1.6985621620
 C         -1.4858066432       -2.1166512286        0.2698422081
 C         -0.2394678911       -1.2934750612        0.4893421308
 C         -0.2360781565       -0.3454747395        1.5097272376
 C          0.8802132376        0.4309336779        1.7508327683
 C          2.0210823386        0.2804139442        0.9811677695
 C          2.0347874618       -0.6706057037       -0.0284958116
 C          0.9109392314       -1.4542120192       -0.2651773820
 H          0.9387700208       -2.1871295146       -1.0564104378
 N          3.1842237181       -0.8250837291       -0.8183858072
 S          4.6864023137       -0.9041905834       -0.0804584192
 O          5.5258495736       -1.6217198669       -1.0149671244
 O          4.5934937602       -1.4543105317        1.2518942100
 C          5.2222027467        0.7922163167       -0.0065214030
 C          5.6196073738        1.3366632362        1.1988352853
 C          6.0456619689        2.6554515274        1.2309435262
 C          6.0677678302        3.4019460147        0.0629230947
 C          5.6679045854        2.8394776588       -1.1402249012
 C          5.2418258296        1.5215637026       -1.1791355433
 H          4.9261332377        1.0483455696       -2.0939268117
 H          5.6860812231        3.4233805351       -2.0463873618
 H          6.3989483124        4.4280894858        0.0901043743
 H          6.3574017487        3.0943414888        2.1651481933
 H          5.5812677140        0.7200543241        2.0828681842
 H          3.0946292208       -1.5136758006       -1.5508614236
 H          2.8938455417        0.8865956598        1.1605788719
 H          0.8630767423        1.1644008652        2.5428782898
 H         -1.1279617912       -0.2255933954        2.1105794547
 H         -1.6593603365       -2.7167815668        1.1751623386
 C         -1.4060403120       -3.0478115107       -0.9218569564
 C         -0.7501248721       -4.3887706898       -0.7897147945
 C         -2.2397435936       -4.2922526983       -0.9228443575
 H         -2.6971193177       -4.6063194413       -1.8490463298
 H         -2.8474567596       -4.4818343136       -0.0499238592
 H         -0.1866045819       -4.7745553139       -1.6262911755
 H         -0.3429441795       -4.6539010020        0.1745604109
 H         -1.3035081911       -2.5154542530       -1.8607075435
