  62
        -98.93813647
 C         -1.7388183902       -0.3159445900       -0.5252690137
 C         -2.9847264776       -0.7955199570       -0.9886179553
 C         -4.1294135238       -0.6608403196       -0.0705298378
 C         -3.9426547517       -0.0974973763        1.1379683691
 C         -4.8996048206        0.1341708735        2.2889322110
 C         -6.4074263023        0.0027345444        2.0917881661
 C         -7.0302653427        1.0712107820        1.1936823685
 H         -8.0820255964        0.8190750010        1.0416786166
 H         -6.9907139876        2.0301469615        1.7165925741
 C         -6.3628637115        1.2610838311       -0.1661325627
 H         -5.3363439306        1.6056757179       -0.0260245812
 H         -6.8993791728        2.0544259889       -0.6936806585
 C         -6.3536661011        0.0283160918       -1.0677461862
 H         -5.9964143460        0.3429983352       -2.0520721684
 H         -7.3715673551       -0.3479189670       -1.1871685649
 C         -5.4551406200       -1.1287629996       -0.5980660858
 H         -5.9630991321       -1.7515893906        0.1345386299
 H         -5.2347603753       -1.7580602480       -1.4655045461
 H         -6.6553498895       -0.9912031834        1.7309714689
 H         -6.8600493699        0.1005222284        3.0824039307
 H         -4.5916377397       -0.5643567081        3.0750215816
 H         -4.6747595485        1.1372460018        2.6652534323
 O         -2.7166954085        0.3457784132        1.5436207478
 C         -1.5937282766        0.2581006686        0.7364523846
 O         -0.5572676367        0.7155344863        1.2498365415
 O         -3.1357473352       -1.3266850010       -2.1225492379
 C         -0.5300367910       -0.4168269870       -1.4338890596
 C          0.5823861625       -1.2176215064       -0.8019166701
 C          0.2906277766       -2.2750940765        0.0542381736
 C          1.2998016909       -3.0035707241        0.6557590980
 C          2.6279201087       -2.7057800176        0.4054346081
 C          2.9313168697       -1.6731311749       -0.4689651561
 C          1.9157915277       -0.9376143561       -1.0673657031
 H          2.1731194454       -0.1333504029       -1.7397527106
 N          4.2906117707       -1.3700719125       -0.7190961770
 S          5.0793182723       -0.5533081491        0.5159450212
 O          6.4392494211       -0.3667676097        0.0638461960
 O          4.9026086666       -1.2880804412        1.7410093036
 C          4.2455810891        1.0213012147        0.5896484363
 C          4.8161195601        2.1146026029       -0.0333297932
 C          4.1158231855        3.3093867786       -0.0622097806
 C          2.8539927737        3.3842918220        0.5098074625
 C          2.2928334862        2.2771132246        1.1273360242
 C          2.9955075892        1.0830750629        1.1718468820
 H          2.5757634439        0.2108184801        1.6461836742
 H          1.3019418709        2.3108784839        1.5521894898
 H          2.3015568276        4.3104226280        0.4733917971
 H          4.5489823309        4.1748562779       -0.5376876688
 H          5.7945937839        2.0078708928       -0.4734920348
 H          4.4314943320       -0.8622005116       -1.5823481760
 H          3.4282255619       -3.2459527349        0.8837615299
 H          1.0500707552       -3.8109701143        1.3277352737
 H         -0.7443262350       -2.5149768264        0.2565046276
 H         -0.8806736857       -0.9619025396       -2.3238421401
 C         -0.0818103600        0.9698255085       -1.8555806214
 C          0.4577920222        1.2171198877       -3.2321475077
 C         -0.9031779950        1.7205824884       -2.8588281243
 H         -1.0444404157        2.7818807122       -2.7210976281
 H         -1.7656984371        1.2150808009       -3.2684336377
 H          1.2526671532        1.9381687230       -3.3522805412
 H          0.5145940957        0.3774406128       -3.9087033251
 H          0.3415870712        1.5343084708       -1.0320141596
