  62
        -98.94301245
 C         -0.9354848540       -1.3106146398        0.2759776366
 C         -1.4379881010       -0.2172366326        1.0156795451
 C         -2.2792473887        0.7382632484        0.2761018964
 C         -2.4772357835        0.5511152839       -1.0402724797
 C         -3.3373752049        1.3852467506       -1.9483739884
 C         -4.7398227993        0.7673794774       -2.0777397774
 C         -5.7294114169        1.1866779169       -0.9906759307
 H         -6.0201572920        2.2264708782       -1.1546186576
 H         -6.6247541847        0.5732329212       -1.1145347476
 C         -5.2291846793        1.0409871415        0.4495191245
 H         -6.1035691006        0.9950390081        1.1016290123
 H         -4.6933907726        0.0966547504        0.5605066632
 C         -4.3390099599        2.2080535629        0.9017991843
 H         -4.6940491802        2.5751984255        1.8666576013
 H         -4.4541775569        3.0307119084        0.1956846208
 C         -2.8433004596        1.8849684641        1.0703409052
 H         -2.2622709358        2.7865704190        0.8498101852
 H         -2.6422311376        1.6205929946        2.1131405321
 H         -5.1595895915        1.0491829825       -3.0455867418
 H         -4.6260358887       -0.3198189925       -2.0754641182
 H         -3.3906316403        2.4104110593       -1.5926403945
 H         -2.8561204226        1.3776874060       -2.9289739423
 O         -1.9478632153       -0.4984902163       -1.7239803406
 C         -1.1640943564       -1.4488964505       -1.0932624172
 O         -0.7517116571       -2.3565871146       -1.8408585589
 H          1.3859955516       -0.2112344643        0.3099400492
 C          1.8956876341       -1.1188975712        0.0236562678
 C          1.3045536757       -2.3442101726        0.3058967539
 C          1.9800643405       -3.5040042829       -0.0487353021
 C          3.1960823540       -3.4286832182       -0.7066162192
 C          3.7510757066       -2.2065990201       -1.0375489887
 C          3.0902192046       -1.0390217830       -0.6704047360
 N          3.6233794147        0.2216492849       -0.9733381321
 S          2.6145279929        1.5240805808       -1.2670457808
 O          1.3774116090        1.1348622728       -1.9032728589
 O          3.4460150489        2.4493500691       -2.0100080935
 C          2.3119139266        2.2016972466        0.3502299140
 C          1.0163778367        2.4193881676        0.7725146280
 C          0.8021199098        2.9492821960        2.0349271901
 C          1.8838026028        3.2559420839        2.8455130122
 C          3.1804995945        3.0396170448        2.4034149144
 C          3.4003294910        2.5069894803        1.1437462355
 H          4.3909353568        2.3245410160        0.7622919554
 H          4.0181182866        3.2807897205        3.0377768344
 H          1.7116429313        3.6645925839        3.8286680862
 H         -0.2067740667        3.1033028951        2.3821299944
 H          0.2012278763        2.1532492371        0.1157198724
 H          4.4273518936        0.2140668756       -1.5835347926
 H          4.6828544159       -2.1516716988       -1.5795004720
 H          3.7092591013       -4.3368441936       -0.9846143967
 H          1.5493518727       -4.4663310520        0.1742021232
 C         -0.0495430418       -2.3290189541        0.9714158190
 H          0.0718590283       -1.9599367386        2.0008463417
 C         -0.7219332518       -3.6848857686        1.0124680113
 C         -0.4271333025       -4.6429402503        2.1268504303
 C         -1.7538810123       -3.9495069234        2.0662940938
 H         -2.6278143831       -4.5244969211        1.7990806379
 H         -1.9519413940       -3.1578506078        2.7740209834
 H         -0.3921097842       -5.6984562534        1.9030240931
 H          0.2741643802       -4.3276770099        2.8843089707
 H         -0.9031064616       -4.0873837115        0.0218986488
 O         -1.1985683724       -0.0460108547        2.2420367921
