  62
        -98.93554738
 C         -2.4772693601       -0.8018282065        0.3938193586
 C         -2.4727933040        0.6111493128        0.5219697151
 C         -3.5502034464        1.3350486586       -0.1627581048
 C         -4.4462267350        0.6405296464       -0.8873290507
 C         -5.6237934717        1.2386319047       -1.5999122575
 C         -6.8667852973        1.2601913383       -0.6992989228
 C         -6.6114932872        1.8422714461        0.6909210179
 H         -7.5630724661        1.8347787853        1.2267292398
 H         -5.9312326923        1.1821244469        1.2338510474
 C         -6.0377865295        3.2660810943        0.6868888724
 H         -6.2035471173        3.7299138829       -0.2861009767
 H         -6.5755996760        3.8628694127        1.4265090421
 C         -4.5519112692        3.3514441847        1.0409750533
 H         -4.3643434528        2.8066032010        1.9696347023
 H         -4.3047595974        4.4009722270        1.2216451038
 C         -3.5807347568        2.8314290248       -0.0266356544
 H         -3.8042240979        3.3002685209       -0.9873536884
 H         -2.5694045475        3.1252516824        0.2700037997
 H         -7.6457027282        1.8376280203       -1.2004642788
 H         -7.2258021201        0.2352869854       -0.5809445645
 H         -5.3735401625        2.2491769770       -1.9172375433
 H         -5.8351759012        0.6323791718       -2.4823511385
 O         -4.4028157124       -0.7080901338       -1.0148906790
 C         -3.4228776365       -1.4688973264       -0.3860660965
 O         -3.5230492949       -2.6889180053       -0.6063678440
 H          1.1164440192       -0.5614358529        1.4887480691
 C          1.0358711625       -1.0839294566        0.5447861764
 C         -0.1738244296       -1.6621384704        0.1922594935
 C         -0.2759899306       -2.2973906764       -1.0420087142
 C          0.8173428313       -2.3630535511       -1.8856856040
 C          2.0271829139       -1.7935556436       -1.5259413738
 C          2.1329577738       -1.1377655342       -0.3071527487
 N          3.3597248853       -0.5557278585        0.0793342000
 S          4.0727669764        0.5560289163       -0.9776350248
 O          3.2174678163        1.7121013048       -1.1423748666
 O          4.4499828316       -0.1299205367       -2.1864925408
 C          5.5284940422        0.9868619358       -0.0454447024
 C          5.5287079391        2.1322126412        0.7271734309
 C          6.6577268401        2.4383369555        1.4708626767
 C          7.7589435014        1.5964631014        1.4318337305
 C          7.7431999132        0.4500599115        0.6511536192
 C          6.6182449904        0.1388374262       -0.0954753509
 H          6.5632719797       -0.7356514929       -0.7221725995
 H          8.6024029911       -0.2003963161        0.6221267086
 H          8.6358831154        1.8372009710        2.0117571250
 H          6.6734018686        3.3301457731        2.0765796841
 H          4.6533537311        2.7622539548        0.7210671212
 H          3.2787371341       -0.1153991008        0.9877079656
 H          2.8776012446       -1.8278236777       -2.1864180536
 H          0.7275902044       -2.8620544810       -2.8391965688
 H         -1.2224542999       -2.7291190556       -1.3318543179
 C         -1.3640090735       -1.5469166906        1.1101991650
 H         -1.0754231504       -0.8811575926        1.9391614530
 C         -1.8033396372       -2.8690626617        1.7222710059
 C         -1.2626236442       -4.2017479494        1.3077150305
 C         -0.8644743327       -3.6137686690        2.6256654296
 H         -1.2532569905       -4.0521144232        3.5321614743
 H          0.1413294667       -3.2307016831        2.7142851974
 H         -0.5239357434       -4.2359553508        0.5228249477
 H         -1.9500191486       -5.0336842077        1.2936272909
 H         -2.8471596577       -2.8514288731        2.0174112429
 O         -1.6052653954        1.2360554537        1.1912941221
