  62
        -98.94441531
 C         -1.9119564188       -0.8127079412        0.0231198556
 C         -2.4145708175        0.4969343190        0.2129535902
 C         -3.8297204542        0.5829576639        0.5967161779
 C         -4.5475118266       -0.5418185075        0.7696702563
 C         -5.9921289656       -0.6160341085        1.1840071660
 C         -6.9832838286       -0.4566168099        0.0231270535
 C         -7.1012364619        0.9595578525       -0.5415602952
 H         -7.9774869939        0.9727965944       -1.1927849014
 H         -7.2904000646        1.6597923731        0.2726651057
 C         -5.8805087929        1.4235912177       -1.3484878889
 H         -5.2759955464        0.5572303138       -1.6268335491
 H         -6.2141655888        1.8918422237       -2.2773267899
 C         -4.9902940992        2.4351788069       -0.6263932853
 H         -5.5468074197        3.3602826239       -0.4599434046
 H         -4.1395828247        2.6662377834       -1.2727720628
 C         -4.4415635782        1.9455859119        0.7202381795
 H         -3.6552487962        2.6334968528        1.0410584949
 H         -5.2323062666        1.9430701974        1.4702209299
 H         -6.6987719718       -1.1448955133       -0.7760216214
 H         -7.9661767891       -0.7612414297        0.3898985458
 H         -6.1377652660       -1.6034730372        1.6272515069
 H         -6.1948428895        0.1393962437        1.9435945978
 O         -4.0176411856       -1.7827959723        0.6016887862
 C         -2.6995784673       -1.9486721653        0.2083394197
 O         -2.3493254397       -3.1383840732        0.0700311611
 H          1.6253884674        0.7596683631       -0.8267231361
 C          1.4721104894        0.5071067899        0.2085439136
 C          0.4598585221       -0.3596580725        0.5875042992
 C          0.2962871048       -0.6416901390        1.9421212470
 C          1.1080719445       -0.0523714795        2.8905302533
 C          2.1127790569        0.8200117021        2.5085596420
 C          2.2919148863        1.1009049962        1.1604120553
 N          3.2970006677        1.9898623886        0.7457495091
 S          4.2755241125        1.6023982789       -0.5525981829
 O          5.4171912253        2.4802730645       -0.4195491617
 O          3.5391800663        1.6988311219       -1.7863444117
 C          4.7640019642       -0.0849445763       -0.2459203726
 C          5.7412282994       -0.3179052359        0.7023819484
 C          6.0867014222       -1.6251794008        1.0024398630
 C          5.4456692184       -2.6729629325        0.3586090292
 C          4.4683126323       -2.4222329499       -0.5917239446
 C          4.1211785599       -1.1160315442       -0.8993866182
 H          3.3700238334       -0.8815718558       -1.6351975109
 H          3.9724431830       -3.2382226403       -1.0930861882
 H          5.7107900383       -3.6912009967        0.5958827092
 H          6.8504983732       -1.8239598118        1.7368405695
 H          6.2230359475        0.5240270239        1.1724830479
 H          3.8406361922        2.3838763898        1.4996465158
 H          2.7434271315        1.2888077143        3.2485757149
 H          0.9605298561       -0.2739787920        3.9367729017
 H         -0.4901111199       -1.3220510898        2.2402692221
 C         -0.4692121426       -1.0154641747       -0.4044074292
 H         -0.2938051991       -2.1008740350       -0.3736237104
 C         -0.2806061058       -0.5323504861       -1.8271943904
 C          0.7137898811       -1.1988880596       -2.7275994652
 C         -0.7542557720       -1.3960678344       -2.9559486701
 H         -1.2152406065       -0.9225306075       -3.8098245803
 H         -1.1875251397       -2.3521308387       -2.6993412717
 H          1.2693216796       -2.0323332834       -2.3243870103
 H          1.2687856222       -0.5884801432       -3.4250027506
 H         -0.4252817466        0.5374871085       -1.9291858000
 O         -1.7222522251        1.5387301601        0.0749668270
