  62
        -98.94686130
 C          1.2417377694        1.2140054724        0.0880824386
 C          2.0012396873        0.6956734062        1.1626939047
 C          2.6791727989       -0.5830444418        0.9116941045
 C          2.5121079535       -1.1926718959       -0.2765127967
 C          3.1941976579       -2.4651951420       -0.6862932394
 C          4.5271897577       -2.1766184292       -1.3913830054
 C          5.4280491853       -1.1995628398       -0.6360881736
 H          6.3511258709       -1.0970899174       -1.2107680663
 H          4.9517911182       -0.2166805801       -0.6159504321
 C          5.7654275726       -1.6270232466        0.7991560529
 H          5.5712094582       -2.6928585586        0.9246358258
 H          6.8327063847       -1.4706410629        0.9697891049
 C          5.0229147163       -0.8455709732        1.8847113652
 H          5.1424889698        0.2268517973        1.7104826022
 H          5.4888105941       -1.0736521472        2.8472490921
 C          3.5249247135       -1.1480248713        2.0181767619
 H          3.3743012559       -2.2256895463        2.1094606955
 H          3.1720259013       -0.6734260448        2.9387550843
 H          5.0538156872       -3.1219050627       -1.5347420530
 H          4.3142186867       -1.7531846623       -2.3754708539
 H          3.3646823478       -3.0814193368        0.1943015755
 H          2.5411220174       -3.0021333320       -1.3751896407
 O          1.7359142962       -0.6871608309       -1.2667999157
 C          1.0797678635        0.5247935062       -1.1148844451
 O          0.4004360937        0.8690320072       -2.0976157344
 H         -0.8942983166        0.7555788018        1.6175623941
 C         -1.5301865119        1.3060874019        0.9347151077
 C         -0.9685382815        2.3039514727        0.1462908734
 C         -1.7957185380        3.0046503011       -0.7200498343
 C         -3.1436794311        2.6973374544       -0.8051571585
 C         -3.6957439631        1.6961207908       -0.0277576627
 C         -2.8777914849        0.9984569714        0.8520521675
 N         -3.4279732147       -0.0332438712        1.6461533343
 S         -4.0047343794       -1.3631469999        0.8048714493
 O         -5.1794543249       -0.9730389000        0.0684761940
 O         -4.1864869002       -2.3972887397        1.7983883580
 C         -2.6955251682       -1.8124015032       -0.3188445184
 C         -2.6555084209       -1.2428610581       -1.5754186824
 C         -1.6110359470       -1.5690448830       -2.4248364510
 C         -0.6301327052       -2.4530601106       -2.0046237703
 C         -0.6789145258       -3.0092473923       -0.7357128027
 C         -1.7182524438       -2.6831943619        0.1198060913
 H         -1.7969273924       -3.1010177489        1.1110905819
 H          0.0905386383       -3.6905164126       -0.4081630025
 H          0.1818080917       -2.6987302165       -2.6706689067
 H         -1.5556686336       -1.1222999719       -3.4038925106
 H         -3.4384680291       -0.5630111036       -1.8690920124
 H         -2.7936302196       -0.3521856539        2.3656646369
 H         -4.7384071915        1.4313475139       -0.0969226867
 H         -3.7729765447        3.2447522286       -1.4903659349
 H         -1.3847923808        3.7844923160       -1.3394304484
 C          0.5167533491        2.5364366619        0.2672585188
 H          0.7316953695        2.8524920303        1.2987938219
 C          1.0546771450        3.5815512592       -0.6858910689
 C          0.9435272532        5.0368445165       -0.3453921493
 C          2.2774160782        4.3558318663       -0.2983724407
 H          3.0045405045        4.5886697644       -1.0618260725
 H          2.7125452126        4.1470272588        0.6682463864
 H          0.7566995902        5.7408032931       -1.1421374783
 H          0.4738366674        5.2966297634        0.5912279776
 H          0.9572514160        3.2887046412       -1.7249583013
 O          2.1012049337        1.2711452467        2.2812619567
