  62
        -98.94293307
 C          1.4622307473        1.4935649824        0.1568496800
 C          2.5090822135        1.0141823863        0.9838090313
 C          3.3176051747       -0.0840786676        0.4380949077
 C          3.0008849637       -0.5968807596       -0.7648867315
 C          3.7480735018       -1.7087146036       -1.4429877674
 C          3.1675372102       -3.0870097390       -1.1000063396
 C          2.9162758711       -3.2967490359        0.3926784288
 H          2.1440432761       -2.5996156632        0.7264151324
 H          2.5178276202       -4.3058991113        0.5192550426
 C          4.1637678034       -3.1322421158        1.2722148171
 H          4.1925505406       -3.9493079507        1.9963419986
 H          5.0623318909       -3.2122185155        0.6591483904
 C          4.2136253606       -1.8288677387        2.0714907098
 H          5.0116150680       -1.9166257888        2.8137789712
 H          3.2756353358       -1.6956808753        2.6167375865
 C          4.4847965502       -0.5568209921        1.2582835112
 H          4.7009631101        0.2494577184        1.9656211522
 H          5.3651858147       -0.7043256436        0.6288983056
 H          3.8559738869       -3.8515050313       -1.4648996092
 H          2.2199061918       -3.2027142231       -1.6279440697
 H          4.7941944106       -1.6613952466       -1.1451510084
 H          3.6826673968       -1.5550725591       -2.5214422180
 O          1.9398483571       -0.1682025007       -1.4919647222
 C          1.1419067847        0.8857513624       -1.0590494361
 O          0.2115669068        1.1634436910       -1.8341452347
 O          2.7620414177        1.4905440060        2.1234805524
 C          0.6517023430        2.6735881827        0.6630743115
 C         -0.8226410240        2.4121317647        0.4913100360
 C         -1.6557079589        3.1862535048       -0.3045498451
 C         -2.9978746254        2.8712291559       -0.4296275138
 C         -3.5385627032        1.7865901498        0.2354043740
 C         -2.7126885549        1.0033757590        1.0319081710
 C         -1.3700416044        1.3216528506        1.1574058406
 H         -0.7269516589        0.7064869805        1.7756742462
 N         -3.2537628626       -0.1113120184        1.7090290543
 S         -3.9136920885       -1.3232071893        0.7579368228
 O         -5.0987035281       -0.8198168125        0.1124423667
 O         -4.0994626368       -2.4463446073        1.6489772948
 C         -2.6594930565       -1.6996530232       -0.4503944868
 C         -2.5959945869       -0.9647753633       -1.6169058394
 C         -1.5756564666       -1.2258599201       -2.5167326699
 C         -0.6441951797       -2.2127484505       -2.2363348384
 C         -0.7231241644       -2.9439527566       -1.0611106525
 C         -1.7354571653       -2.6812558807       -0.1533779826
 H         -1.8341802126       -3.2285848834        0.7707466820
 H          0.0007397325       -3.7139185929       -0.8447905690
 H          0.1512661175       -2.4048825345       -2.9394429808
 H         -1.5004447382       -0.6478741540       -3.4228159958
 H         -3.3380761585       -0.2062092833       -1.8037086315
 H         -2.6070710569       -0.5255813057        2.3658217787
 H         -4.5786529537        1.5207016927        0.1371163527
 H         -3.6322308464        3.4787531035       -1.0572477108
 H         -1.2501382341        4.0230686893       -0.8484725351
 H          0.8646300118        2.7072927412        1.7449633210
 C          1.0934230527        4.0154988974        0.0972600122
 C          2.5154036383        4.2498400940       -0.3140109341
 C          1.4338891569        4.2063471903       -1.3493095946
 H          1.1451476962        5.1320211329       -1.8255125908
 H          1.3723453143        3.3453377524       -1.9959469789
 H          2.9670308907        5.2017642113       -0.0780774886
 H          3.1994786227        3.4159189765       -0.2523241435
 H          0.5971008492        4.8440022658        0.5935493447
