  62
        -98.94370612
 C         -1.2291585464       -0.9260739324        0.2712798701
 C         -1.6660600619        0.2405533785        0.9479959660
 C         -2.6662328087        1.0609734546        0.2542852886
 C         -3.0416042822        0.7206215273       -0.9916336518
 C         -4.0836036269        1.4372159080       -1.7995618379
 C         -5.4779815350        0.8381218972       -1.5673441239
 C         -5.8383955253        0.6645692861       -0.0918916692
 H         -6.8529121937        0.2626063385       -0.0503317940
 H         -5.1773954454       -0.0844815911        0.3500798697
 C         -5.7648615020        1.9554256669        0.7355559170
 H         -5.7748575819        2.8212685457        0.0725061686
 H         -6.6544329329        2.0188906275        1.3657076473
 C         -4.5530951413        2.0440448614        1.6649902521
 H         -4.4872000987        1.1349841237        2.2681137369
 H         -4.7105422688        2.8811878855        2.3501229219
 C         -3.1997519663        2.2654292616        0.9774647562
 H         -3.2631979750        3.1217373310        0.3022455164
 H         -2.4649614747        2.4974956167        1.7542817162
 H         -6.2144466834        1.4826855911       -2.0505738999
 H         -5.5170140610       -0.1423234492       -2.0477399601
 H         -4.0792176994        2.4924942439       -1.5324340893
 H         -3.8248019725        1.3403344420       -2.8555045257
 O         -2.5353987249       -0.3538762520       -1.6465012067
 C         -1.6141892858       -1.2009031198       -1.0419054125
 O         -1.2311741986       -2.1309860226       -1.7755392883
 H          1.0067937217        0.0656603358       -0.4633441088
 C          1.5207926857       -0.8786313778       -0.5540066043
 C          1.0076382283       -1.9971818324        0.0895334939
 C          1.6571039748       -3.2126079644       -0.0808767286
 C          2.7839010761       -3.2950080081       -0.8815666507
 C          3.2982210477       -2.1752028690       -1.5086309128
 C          2.6527885303       -0.9538990430       -1.3466458471
 N          3.1288904219        0.2081733250       -1.9690580545
 S          2.8946485751        1.7025189609       -1.2652787794
 O          1.5245210459        2.1272894580       -1.4166302807
 O          3.8875673138        2.5472755949       -1.8951726751
 C          3.3042826550        1.4781027388        0.4570459429
 C          4.6165145813        1.1741734787        0.7655674348
 C          4.9630555226        0.9552566807        2.0883215582
 C          3.9946359541        1.0381476208        3.0777592725
 C          2.6840721884        1.3509510867        2.7536720554
 C          2.3328655531        1.5755227804        1.4316745310
 H          1.3178103111        1.8152494533        1.1545357939
 H          1.9228177066        1.4138463720        3.5151017341
 H          4.2614413260        0.8607177689        4.1076101310
 H          5.9830014490        0.7174731829        2.3437674135
 H          5.3428440364        1.1281846226       -0.0293668421
 H          4.0257244960        0.1249238866       -2.4230000040
 H          4.1779368114       -2.2435839244       -2.1296990467
 H          3.2732393197       -4.2478361067       -1.0148585040
 H          1.2730704850       -4.1000236630        0.3943083211
 C         -0.2012926138       -1.7964893446        0.9701615373
 H          0.1248440386       -1.1811094187        1.8270975042
 C         -0.7534746251       -3.0880532727        1.5568534482
 C         -2.2245213576       -3.2840817790        1.7676139632
 C         -1.5032146559       -4.0880130128        0.7300001486
 H         -1.3382007977       -5.1383862696        0.9213055215
 H         -1.6659178163       -3.8496980701       -0.3090463121
 H         -2.5531808402       -3.7771868071        2.6703397140
 H         -2.8880679951       -2.5001386936        1.4312090919
 H         -0.1081609143       -3.4902308077        2.3316639857
 O         -1.2311024393        0.5832963538        2.0806790348
