  62
        -98.93916251
 C         -1.8715304410       -0.8488210082       -0.1915990627
 C         -2.4721003966       -0.2261312601        0.9255961394
 C         -3.5828311392        0.7015689893        0.6491844680
 C         -3.9491710664        0.9298403752       -0.6261193978
 C         -5.0043402038        1.8458674583       -1.2106279627
 C         -6.0874831457        2.4575864102       -0.3257527827
 C         -7.0868919839        1.4540635845        0.2485672423
 H         -7.7485342273        1.9864816672        0.9354257499
 H         -7.6991614659        1.0668369696       -0.5697504398
 C         -6.4766835066        0.2569766286        0.9732968075
 H         -7.2973589325       -0.3727202365        1.3274518562
 H         -5.8944455740       -0.3405052072        0.2688108431
 C         -5.6008525078        0.5982803252        2.1771803574
 H         -5.3686535744       -0.3386106423        2.6906372369
 H         -6.1590636300        1.2297892704        2.8710289697
 C         -4.2655672169        1.2896088602        1.8506282357
 H         -3.5887253979        1.1319442632        2.6956155749
 H         -4.3939544975        2.3631431820        1.7328709189
 H         -6.6459599526        3.1547693639       -0.9564130801
 H         -5.6378362672        3.0453869958        0.4691624598
 H         -4.4541368963        2.6594952011       -1.6965729225
 H         -5.4798659198        1.2749396917       -2.0145316910
 O         -3.3103082900        0.3347787931       -1.6760337267
 C         -2.2706029511       -0.5634294303       -1.4960700599
 O         -1.8009465632       -1.0226017875       -2.5532660005
 O         -2.0880239983       -0.4250246916        2.1106010515
 C         -0.7343761489       -1.8292198236        0.0323310187
 C          0.5289577427       -1.3024953180       -0.6028421423
 C          1.3260639787       -2.0446740233       -1.4632771192
 C          2.4650534773       -1.4870458712       -2.0198817232
 C          2.8401183175       -0.1905408813       -1.7227108814
 C          2.0621383585        0.5529833358       -0.8429729992
 C          0.9223739351       -0.0067413488       -0.2878265352
 H          0.3144141323        0.5758383384        0.3934213002
 N          2.4466735231        1.8634572299       -0.5144351515
 S          4.0627549609        2.1503825475       -0.1892688021
 O          4.0722618356        3.2812851651        0.7122767679
 O          4.7827085146        2.3283484065       -1.4258175741
 C          4.6465692311        0.6822068175        0.6404689035
 C          5.6758935701       -0.0552313754        0.0918949520
 C          6.0942411798       -1.2071953042        0.7386242793
 C          5.4761279670       -1.6015861442        1.9148146465
 C          4.4457306158       -0.8476318409        2.4557913111
 C          4.0249778812        0.3060730411        1.8147770060
 H          3.2289076629        0.9149780753        2.2130367085
 H          3.9655476018       -1.1552357064        3.3709267656
 H          5.7983111303       -2.5011811616        2.4149824766
 H          6.8964560807       -1.7940878075        0.3213426012
 H          6.1255923497        0.2862383988       -0.8261877199
 H          1.8464760514        2.3125698352        0.1609687203
 H          3.7126032069        0.2628667353       -2.1643113732
 H          3.0673118847       -2.0705772861       -2.6990949967
 H          1.0502064249       -3.0562166438       -1.7102580408
 H         -0.5821719464       -1.8526167137        1.1216306508
 C         -1.1236446489       -3.2153845445       -0.4344595154
 C         -0.4966244634       -4.4239030296        0.1920060568
 C         -1.9276933366       -4.0872866817        0.4813192639
 H         -2.7026185583       -4.7064703185        0.0548632120
 H         -2.1750641680       -3.6897621957        1.4549453682
 H         -0.2893382425       -5.2796658289       -0.4324024424
 H          0.2294740505       -4.2609236201        0.9737466867
 H         -1.3617789260       -3.2481307107       -1.4915753989
