  62
        -98.93528082
 C         -1.2427343506       -1.8038614041        0.4605009051
 C         -1.9149217508       -1.3813687897       -0.7104717175
 C         -3.0112628216       -0.4088521284       -0.5219394114
 C         -3.2567624078        0.0944424062        0.7008917142
 C         -4.3119216689        1.0701274723        1.1785598223
 C         -5.0472161814        1.9743774907        0.1913783144
 C         -4.1699221608        2.9967209032       -0.5293194617
 H         -4.7977684583        3.5397439548       -1.2392960595
 H         -3.7963271281        3.7185347620        0.2014755236
 C         -2.9655410371        2.4237962105       -1.2728185104
 H         -2.4579430872        3.2515174310       -1.7765658086
 H         -2.2590447405        2.0017624160       -0.5562370281
 C         -3.2875136586        1.3611045484       -2.3220197495
 H         -2.3772978337        1.1871426246       -2.9028320530
 H         -4.0501618300        1.7367854135       -3.0067616966
 C         -3.7486351641        0.0011507221       -1.7646501003
 H         -4.8218759121       -0.0108740747       -1.5881969089
 H         -3.5314588472       -0.7610616308       -2.5186065902
 H         -5.5977231064        1.3784267330       -0.5306722643
 H         -5.7879377322        2.5292703155        0.7736194502
 H         -5.0566471166        0.4688551256        1.7119133275
 H         -3.8218926681        1.6913154478        1.9348718732
 O         -2.5335108767       -0.2915901371        1.7918858935
 C         -1.5376151748       -1.2467355075        1.7072482901
 O         -0.9914463099       -1.5136332036        2.7942413327
 H          0.5478839500       -0.9355304037       -1.3289107486
 C          1.3729537239       -1.1721157699       -0.6725700811
 C          1.2106348167       -2.1500259281        0.2990145123
 C          2.2837590471       -2.4455867765        1.1301613092
 C          3.4904815033       -1.7819239375        0.9871038105
 C          3.6450399713       -0.8012717748        0.0239108882
 C          2.5743892181       -0.4940089126       -0.8055789747
 N          2.7049240995        0.5515581717       -1.7463762813
 S          3.0207263446        2.0482340819       -1.0525661994
 O          2.5031524787        3.0287644015       -1.9794167120
 O          4.4277660464        2.1386163910       -0.7558367530
 C          2.0801657383        2.0412115069        0.4639301032
 C          2.7213647791        1.8267970379        1.6669248240
 C          1.9633162674        1.7328910347        2.8228387892
 C          0.5844874383        1.8554584494        2.7572335490
 C         -0.0427635160        2.0815716015        1.5423616306
 C          0.7078324116        2.1665074615        0.3816345809
 H          0.2497122737        2.3377883766       -0.5802585976
 H         -1.1162277989        2.1777751966        1.4990063198
 H         -0.0089855199        1.7660509260        3.6533549408
 H          2.4469465768        1.5568863310        3.7699592576
 H          3.7953722691        1.7402392287        1.6759993521
 H          1.9042977307        0.6241976752       -2.3591228903
 H          4.5681959170       -0.2564118268       -0.0902645473
 H          4.3160130125       -2.0232985251        1.6387181455
 H          2.1620425179       -3.1878907568        1.9049969090
 C         -0.1227528850       -2.8325304648        0.4647784821
 H         -0.1403699723       -3.2765691852        1.4726370185
 C         -0.3386578354       -3.9627227760       -0.5319778205
 C          0.4700661026       -4.1275715405       -1.7799858251
 C          0.6662051013       -5.0717972013       -0.6345604098
 H          0.3091035481       -6.0859424546       -0.7301713166
 H          1.5751357568       -4.9745358343       -0.0603158400
 H         -0.0412196713       -4.4759153565       -2.6643728993
 H          1.2461324012       -3.4069665147       -1.9859570190
 H         -1.3836546487       -4.2473092730       -0.5984807250
 O         -1.6391099035       -1.7809354652       -1.8713735505
