  62
        -98.93752345
 C         -2.3134422275       -0.7026657043        0.0598660168
 C         -3.3196427378       -0.3664770726        0.9983236830
 C         -4.2635169517        0.6963664409        0.6129431184
 C         -4.1249961048        1.2972495672       -0.5836350481
 C         -4.8957797039        2.4313243688       -1.2268649056
 C         -6.2343368786        2.8899471804       -0.6544591755
 C         -7.3693806758        1.8758954074       -0.7938396562
 H         -8.2411470444        2.2630007295       -0.2619060848
 H         -7.6341551949        1.7948011142       -1.8511490082
 C         -7.0627460248        0.4686034597       -0.2877256649
 H         -7.9489671591       -0.1486045667       -0.4588911839
 H         -6.2515502894        0.0353961849       -0.8764619670
 C         -6.7076035190        0.3695491788        1.1944131299
 H         -7.4958730470        0.8301115654        1.7930211423
 H         -6.6685475368       -0.6920661175        1.4529593432
 C         -5.3596976616        0.9929820909        1.5956606832
 H         -5.0496927217        0.5448028116        2.5440910039
 H         -5.4517821135        2.0643517192        1.7566113225
 H         -6.1169595960        3.1918951478        0.3820065949
 H         -6.5215103108        3.7845991091       -1.2136716010
 H         -4.2110122114        3.2865457816       -1.2344660895
 H         -5.0349045792        2.1406334506       -2.2730575713
 O         -3.1282893711        0.9502110062       -1.4489372415
 C         -2.2078845190       -0.0453272041       -1.1640834170
 O         -1.3791259905       -0.2376421135       -2.0745989745
 O         -3.4253519337       -0.9307443599        2.1198345257
 C         -1.3234331359       -1.7920274718        0.4379889762
 C          0.0186650597       -1.1575653471        0.7087430681
 C          0.2983883936       -0.6663283264        1.9808140794
 C          1.5061177886       -0.0500004508        2.2499597906
 C          2.4566785532        0.0992584330        1.2550339143
 C          2.1850739866       -0.3813073365       -0.0186526716
 C          0.9778174630       -1.0155614701       -0.2823692711
 H          0.7731490707       -1.3712240142       -1.2801186748
 N          3.1313672427       -0.2054960869       -1.0420985662
 S          4.7186339567       -0.6658663095       -0.7628715882
 O          5.2731230190       -0.9382139995       -2.0710178282
 O          4.7967005932       -1.7370837492        0.2034504673
 C          5.4820335022        0.8028244859       -0.1062894445
 C          6.1211018715        0.7601201207        1.1173190808
 C          6.7159716287        1.9140601170        1.6035224779
 C          6.6624517560        3.0835213834        0.8608663983
 C          6.0187936729        3.1092039329       -0.3675924721
 C          5.4228125039        1.9589925870       -0.8593966708
 H          4.9158693604        1.9363076326       -1.8098442862
 H          5.9789361262        4.0205378910       -0.9423359808
 H          7.1252592892        3.9805053665        1.2410595987
 H          7.2170566340        1.8962648904        2.5580451923
 H          6.1337688098       -0.1708931695        1.6613897682
 H          2.8111552498       -0.5178518476       -1.9471332247
 H          3.3985822955        0.5833602310        1.4554183923
 H          1.7094894695        0.3220062023        3.2426161208
 H         -0.4494932344       -0.7676383771        2.7547369205
 H         -1.6973483770       -2.2045605160        1.3847111154
 C         -1.2704062294       -2.9057352684       -0.5872018239
 C         -0.6053969971       -4.1990275877       -0.2251235305
 C         -2.0951750774       -4.1380683045       -0.3745925714
 H         -2.5474553648       -4.6093933632       -1.2343320863
 H         -2.7003462646       -4.1871717261        0.5186987440
 H         -0.0313407197       -4.7143326263       -0.9802007659
 H         -0.1971203652       -4.2863469817        0.7705199027
 H         -1.1683562539       -2.5524947034       -1.6058833306
