  62
        -98.93420668
 C         -2.3150135329       -0.8966413258       -0.2237844268
 C         -3.5806142536       -1.1992224369        0.3305572448
 C         -4.7228274774       -0.4195498013       -0.1757064094
 C         -4.5088725221        0.5074056902       -1.1255844980
 C         -5.5170214056        1.4447320596       -1.7305227306
 C         -5.5143481852        2.7920608437       -0.9885076086
 C         -6.4255322372        2.8541537065        0.2368925856
 H         -6.2254010158        3.8018539562        0.7420044066
 H         -7.4669253562        2.8713261896       -0.0911982916
 C         -6.2496485243        1.7140931925        1.2436622876
 H         -5.1867002057        1.5132943398        1.3899140615
 H         -6.6494449713        2.0501669413        2.2024101362
 C         -6.9746315029        0.4248791101        0.8289738123
 H         -7.6591126960        0.6502877474        0.0114063981
 H         -7.5898450234        0.0737750776        1.6599289642
 C         -6.0615459632       -0.7447732637        0.4287568687
 H         -5.8261797011       -1.3429901424        1.3144941180
 H         -6.6044377599       -1.4031721263       -0.2572521949
 H         -4.4841297988        3.0084100173       -0.6938645733
 H         -5.8265946887        3.5752128101       -1.6823327238
 H         -5.2035970587        1.6154906847       -2.7624660319
 H         -6.5066431074        0.9978264104       -1.7331539118
 O         -3.2743335060        0.7597669018       -1.6409275799
 C         -2.1482095822        0.0855990349       -1.1995540819
 O         -1.0897951297        0.4456597253       -1.7484769920
 O         -3.7486957174       -2.0759580409        1.2212613169
 C         -1.0960707980       -1.6445465009        0.2878713627
 C         -0.1665988741       -0.6646042751        0.9602325050
 C         -0.6164004656       -0.0014956229        2.1003473842
 C          0.1833696180        0.9241416255        2.7406039056
 C          1.4505168668        1.2053806092        2.2600633120
 C          1.9055100368        0.5561160233        1.1185767765
 C          1.1006997658       -0.3785409645        0.4802904853
 H          1.4781882134       -0.8665769025       -0.4020562392
 N          3.1697872808        0.8590090178        0.5898258809
 S          4.0504021635       -0.3292603405       -0.2174709351
 O          3.5551075686       -0.4646999165       -1.5636663713
 O          4.0930947302       -1.5396210738        0.5731924353
 C          5.6551823064        0.4483276588       -0.2463221950
 C          5.8836563535        1.4462464888       -1.1752219522
 C          7.1158217575        2.0799819501       -1.1881791651
 C          8.0937108805        1.7076648260       -0.2773841502
 C          7.8507920918        0.7030529678        0.6470204000
 C          6.6196628246        0.0661183844        0.6665301088
 H          6.3876625502       -0.7244473087        1.3618475377
 H          8.6143527817        0.4137465438        1.3509716593
 H          9.0520647500        2.2022878223       -0.2906162521
 H          7.3089181292        2.8597265251       -1.9072123784
 H          5.0964313984        1.6946001073       -1.8681883482
 H          3.7508041020        1.3822791535        1.2302994600
 H          2.0775290544        1.9292611819        2.7580659162
 H         -0.1780653327        1.4278169370        3.6245755328
 H         -1.6068093884       -0.2244971370        2.4737242831
 H         -1.4778544042       -2.3340976024        1.0550443773
 C         -0.4422108200       -2.4542379639       -0.8100682198
 C          0.4616005944       -3.5942939739       -0.4510767288
 C         -0.8859715914       -3.8650929667       -1.0480279198
 H         -0.9377454963       -4.2238664259       -2.0649924202
 H         -1.6594542646       -4.2585611387       -0.4047452568
 H          1.3425607458       -3.7611559050       -1.0528589053
 H          0.6063294957       -3.8032822345        0.5983160294
 H         -0.1855677417       -1.8595195240       -1.6799127218
