  62
        -98.94076419
 C         -2.5364489618       -0.2990792849        0.1838248697
 C         -2.5247950667        0.8098657132        1.0658857851
 C         -2.3824041256        2.1343032641        0.4498142980
 C         -2.2579472389        2.2262128872       -0.8861667061
 C         -2.0907618590        3.5085616732       -1.6481147369
 C         -0.6111452489        3.8503060558       -1.8658582621
 C          0.2411005776        3.7754755864       -0.5985261245
 H          0.3252035421        2.7329169234       -0.2808805843
 H          1.2488686439        4.0994517176       -0.8692858618
 C         -0.2697486027        4.6329533153        0.5676252981
 H          0.5831307272        5.1415211588        1.0222895951
 H         -0.9463341359        5.4028938935        0.1938784263
 C         -0.9617959596        3.8484115464        1.6843379114
 H         -1.0477219607        4.5020301353        2.5570101906
 H         -0.3366988730        2.9978705698        1.9722387896
 C         -2.3685284585        3.3268698085        1.3633407321
 H         -2.9775716883        4.1362823885        0.9550185318
 H         -2.8228041861        2.9924448727        2.3008021020
 H         -0.5507656591        4.8555034957       -2.2883699148
 H         -0.1964076024        3.1473575300       -2.5917385906
 H         -2.5726507428        3.3920395370       -2.6207058239
 H         -2.5835453951        4.3118271086       -1.1033813509
 O         -2.2478066756        1.1418402634       -1.7003357939
 C         -2.3381264783       -0.1458850045       -1.1895373500
 O         -2.2433041655       -1.0356795217       -2.0555698220
 O         -2.6306431844        0.6950657465        2.3186140770
 C         -2.5993363008       -1.6865500013        0.7985839300
 C         -1.4398664624       -2.5100044147        0.2935083946
 C         -1.5477291583       -3.8034475732       -0.1962401394
 C         -0.4195452917       -4.4777826823       -0.6347279781
 C          0.8251564369       -3.8788754112       -0.6095177189
 C          0.9413556383       -2.5762953967       -0.1308890839
 C         -0.1813042330       -1.9213808244        0.3402771842
 H         -0.0829872962       -0.9192754689        0.7330720392
 N          2.1798784047       -1.9145297537       -0.1618604135
 S          2.3846909606       -0.3957287791        0.5189836006
 O          2.2019063722       -0.4454079628        1.9551648711
 O          1.5738922477        0.5535917628       -0.1998171832
 C          4.1068039562       -0.1320634025        0.1428223256
 C          5.0651571516       -0.4388408422        1.0901727457
 C          6.4026681611       -0.2571364358        0.7749577163
 C          6.7574921509        0.2240487515       -0.4762602136
 C          5.7844084469        0.5297562585       -1.4162999722
 C          4.4454907749        0.3505973672       -1.1069132865
 H          3.6531291436        0.5818474727       -1.8000835239
 H          6.0630741458        0.9068908527       -2.3870373085
 H          7.7986993765        0.3651467477       -0.7195426685
 H          7.1608671223       -0.4900131312        1.5050619946
 H          4.7413226815       -0.7990115496        2.0533914147
 H          2.9825164951       -2.5168946177       -0.0558459217
 H          1.6982601761       -4.4012338567       -0.9683073885
 H         -0.5152577999       -5.4848605940       -1.0116452457
 H         -2.5129431414       -4.2793896577       -0.2514448140
 H         -2.4309831335       -1.5076190861        1.8754157304
 C         -3.9464325166       -2.3837227179        0.6862087610
 C         -5.2034231317       -1.6066254475        0.4357044274
 C         -4.6715792312       -2.5300419391       -0.6168190570
 H         -5.2046367177       -3.4508907364       -0.8037290092
 H         -4.2098459505       -2.1026286767       -1.4923189980
 H         -6.0972327944       -1.8904793753        0.9709400837
 H         -5.1082328172       -0.5421202807        0.2753660473
 H         -4.0312685296       -3.2121129156        1.3832305458
