  62
        -98.95003240
 C         -1.9045116412       -1.0457448177        0.0247811797
 C         -1.3267142116       -1.8228162690       -1.0094590696
 C         -0.2483865629       -2.7318964300       -0.6030249786
 C          0.1002654364       -2.8183318998        0.6936498516
 C          1.1388367750       -3.7392531307        1.2754056526
 C          2.5777440157       -3.2117239924        1.1951168930
 C          3.1941222064       -3.2189417339       -0.2037800667
 H          4.2637954965       -3.0358445251       -0.0862473963
 H          3.0791270254       -4.2073191840       -0.6499938262
 C          2.6151018081       -2.1558533037       -1.1464895575
 H          2.0899117987       -1.3942178628       -0.5660898082
 H          3.4244078589       -1.6383897549       -1.6677169474
 C          1.6651284580       -2.6904447131       -2.2182635277
 H          1.2784861492       -1.8297388530       -2.7715746583
 H          2.2167953176       -3.3225637642       -2.9184624171
 C          0.4740437567       -3.4904423714       -1.6739857379
 H          0.8115387254       -4.4566452416       -1.2980143172
 H         -0.2283477731       -3.6587875710       -2.4943982781
 H          2.6048702167       -2.1950878823        1.5933652225
 H          3.1907474146       -3.8429085128        1.8423068736
 H          1.0798196041       -4.7096276009        0.7813269631
 H          0.8795253744       -3.8695742598        2.3282484025
 O         -0.5016078532       -2.0783308585        1.6616320709
 C         -1.4812078719       -1.1430030875        1.3500710000
 O         -1.8850350716       -0.4872997866        2.3283484794
 O         -1.7025688709       -1.7652164792       -2.2112007298
 C         -2.9627099998       -0.0149517067       -0.3341044713
 C         -2.3900629783        1.3578074828       -0.0747064618
 C         -2.9367524576        2.2747685239        0.8125705875
 C         -2.3047950063        3.4856312233        1.0392997971
 C         -1.1167367356        3.7979580315        0.4046682076
 C         -0.5661747563        2.8917385704       -0.4962239817
 C         -1.2187965876        1.6946569810       -0.7442076114
 H         -0.7958182180        0.9995698602       -1.4555153008
 N          0.6335358244        3.1875508086       -1.1660221513
 S          1.8460456632        2.0542255571       -1.3554161201
 O          2.9449402143        2.8020888955       -1.9262309700
 O          1.3666360822        0.9377004573       -2.1258988897
 C          2.2884368517        1.5393708074        0.2946376904
 C          3.4587302220        2.0165590263        0.8522134407
 C          3.7903225410        1.6415335566        2.1441728711
 C          2.9431088196        0.8105182680        2.8617698411
 C          1.7678968694        0.3450357691        2.2920937108
 C          1.4391341404        0.7061330988        0.9948384704
 H          0.5324350902        0.3489517296        0.5309506302
 H          1.0935907583       -0.2935420898        2.8425802108
 H          3.1963626688        0.5211765882        3.8694936514
 H          4.7047467212        1.9997678258        2.5888259413
 H          4.0853767431        2.6617766653        0.2581256907
 H          1.0297360654        4.0858429483       -0.9298658216
 H         -0.6173716846        4.7348675010        0.5994000173
 H         -2.7366081558        4.1901285141        1.7337236666
 H         -3.8487802482        2.0382079652        1.3346675572
 H         -3.1167516094       -0.1222223171       -1.4179426814
 C         -4.2701776805       -0.2860743648        0.3765206882
 C         -5.5504472495        0.2478683365       -0.1908022127
 C         -5.2582953313       -1.2204653739       -0.2519959118
 H         -5.8169781824       -1.8863750129        0.3883814983
 H         -4.9965150813       -1.6523901047       -1.2071091015
 H         -6.3146003895        0.5897341677        0.4905393967
 H         -5.4913865684        0.8145307559       -1.1078387930
 H         -4.1634399310       -0.3256384043        1.4542091082
