  62
        -98.93769404
 C          1.2504192603        1.1870196800        0.2043679214
 C          1.9981446998        0.4933658198        1.1867197716
 C          2.6541600300       -0.7449400201        0.7487159817
 C          2.4883800606       -1.1621312699       -0.5195219584
 C          3.1347545109       -2.3793961497       -1.1131692484
 C          4.4859538412       -2.0330599196       -1.7546587177
 C          5.4045719008       -1.2080911398       -0.8534172771
 H          4.9556638607       -0.2257875198       -0.6896067671
 H          6.3375868610       -1.0486515497       -1.3980811067
 C          5.7104103902       -1.8557399100        0.5043241229
 H          6.7795783501       -1.7610736400        0.7054144134
 H          5.4807639302       -2.9212548000        0.4675655826
 C          4.9778804296       -1.2224010202        1.6888569327
 H          5.1303701696       -0.1400489902        1.6788599429
 H          5.4236309092       -1.6063947404        2.6103919028
 C          3.4698544496       -1.4946220603        1.7634913219
 H          3.1160793291       -1.1550625804        2.7418307518
 H          3.2833763596       -2.5684585802        1.6904137717
 H          4.2995718316       -1.4620231295       -2.6668755777
 H          4.9849409713       -2.9635290896       -2.0310875076
 H          3.2699711906       -3.1272057399       -0.3340476084
 H          2.4709548213       -2.7840383996       -1.8789136287
 O          1.7433609310       -0.4854569097       -1.4278411487
 C          1.1110481109        0.7106212302       -1.0993934787
 O          0.4740836213        1.2168952504       -2.0379607189
 H         -1.0726869605        0.8297167697        1.8223360403
 C         -1.6040416401        1.3721707798        1.0523234501
 C         -0.9257822798        2.3206182500        0.2870620206
 C         -1.6384911693        2.9739361101       -0.7098870196
 C         -2.9805267092        2.6983295302       -0.9155884902
 C         -3.6400169396        1.7491399100       -0.1595741707
 C         -2.9359116100        1.0707208998        0.8281806595
 N         -3.5548606404        0.0658414097        1.6040644190
 S         -2.9028070603       -1.4737537003        1.4946876590
 O         -3.8988610005       -2.3418811404        2.0844502784
 O         -1.5942249506       -1.5008429704        2.0949671696
 C         -2.7947874795       -1.7694031200       -0.2591003710
 C         -1.6521231892       -1.3788847598       -0.9258083704
 C         -1.6012595386       -1.5028348996       -2.3046084004
 C         -2.6910997982       -2.0188553095       -2.9887601010
 C         -3.8299972685       -2.4169745496       -2.3040740116
 C         -3.8894195292       -2.2839397399       -0.9263221016
 H         -4.7542229694       -2.5797862700       -0.3545277320
 H         -4.6727453583       -2.8217253795       -2.8410142520
 H         -2.6497925277       -2.1097747093       -4.0627144210
 H         -0.7165340283       -1.1730192295       -2.8265267999
 H         -0.8230053494       -0.9810248299       -0.3610979599
 H         -4.5546342303        0.0112273997        1.4623437086
 H         -4.6821310995        1.5272769900       -0.3326528112
 H         -3.5138145489        3.2229485503       -1.6935505304
 H         -1.1590895690        3.6854690003       -1.3562362692
 C          0.5384434801        2.4690526799        0.6200720713
 H          0.6040629196        2.4649659597        1.7211154513
 C          1.3494937703        3.6776414900        0.1775446619
 C          1.4030262609        4.2337341303       -1.2116439580
 C          0.7901728004        5.0392872801       -0.1037423181
 H          1.3417897502        5.8926190300        0.2626113723
 H         -0.2789878496        5.1707533600       -0.0769249486
 H          0.7803951212        3.7802312504       -1.9650907883
 H          2.3690086711        4.5400794903       -1.5878003675
 H          2.3028081900        3.6636515699        0.7025698523
 O          2.1142501093        0.8971754196        2.3764333418
