  62
        -98.94443095
 C          1.9495296151        1.0818050498       -0.2081445050
 C          2.4404695021       -0.0845543101       -0.8422457211
 C          3.8969655990       -0.2784953616       -0.7808396608
 C          4.6615325498        0.6452296794       -0.1703555101
 C          6.1486319673        0.5472162814        0.0067157304
 C          6.5066630193       -0.1363567534        1.3338161551
 C          5.7559767999       -1.4457470491        1.5765652041
 H          6.1109610813       -1.8528157013        2.5258139834
 H          4.6917348499       -1.2305597984        1.6967009059
 C          5.9363770543       -2.4955229839        0.4712389004
 H          6.8116502034       -2.2519941887       -0.1321201480
 H          6.1233983578       -3.4655369530        0.9366874321
 C          4.7226734339       -2.6679587701       -0.4442000956
 H          4.8711341580       -3.5732940377       -1.0389897936
 H          3.8243030970       -2.8182040563        0.1602061679
 C          4.4560189322       -1.5169497076       -1.4225275325
 H          5.3672524480       -1.2872252342       -1.9786869629
 H          3.6953453391       -1.8545688206       -2.1327656025
 H          7.5819203742       -0.3235385306        1.3462779431
 H          6.2715079129        0.5495865754        2.1508653018
 H          6.5723475421       -0.0092989560       -0.8269209885
 H          6.5621896748        1.5571052763        0.0053540307
 O          4.1540672320        1.7652321266        0.4051591894
 C          2.7900149114        2.0054125043        0.4130520996
 O          2.4542478246        3.0557522350        0.9966327092
 O          1.7051254209       -0.9214092070       -1.4282767316
 C          0.4585821388        1.3712274247       -0.2037363679
 C         -0.2879054318        0.2067961943        0.3995911763
 C          0.1097068379       -0.2630906348        1.6496227181
 C         -0.5242677971       -1.3408443251        2.2347549712
 C         -1.5797209649       -1.9657978724        1.5929072875
 C         -1.9909150874       -1.5006221272        0.3505833208
 C         -1.3503899318       -0.4155447338       -0.2352632268
 H         -1.6808271415       -0.0905204585       -1.2068852020
 N         -3.0490160245       -2.1263327160       -0.3281526680
 S         -4.2436914373       -1.2157255331       -1.0597426159
 O         -5.3230301889       -2.1511084907       -1.2868942365
 O         -3.7262471957       -0.5448437506       -2.2239818752
 C         -4.7180572936       -0.0318363145        0.1864056985
 C         -5.5575222726       -0.4533793022        1.1994622542
 C         -5.8835256933        0.4326544868        2.2129186097
 C         -5.3596269783        1.7166941655        2.2010866233
 C         -4.5196684362        2.1244931784        1.1766249239
 C         -4.1930050679        1.2437823326        0.1572508364
 H         -3.5475280142        1.5260539434       -0.6578703371
 H         -4.1150504190        3.1241252458        1.1676852988
 H         -5.6091992398        2.4053254559        2.9928584856
 H         -6.5408575677        0.1206715343        3.0084466804
 H         -5.9518001639       -1.4561026274        1.1656674430
 H         -3.4473861318       -2.9153754134        0.1594657989
 H         -2.0712316849       -2.8143751550        2.0439675407
 H         -0.1971486183       -1.6984779248        3.1995138013
 H          0.9359666158        0.2247883790        2.1494246567
 H          0.3220570825        2.2443310741        0.4510707622
 C         -0.0031893102        1.7349216335       -1.5991551621
 C         -1.1479405969        2.6818032239       -1.7919486843
 C          0.2494472782        3.1202908028       -2.1101275695
 H          0.5317612034        3.2444355302       -3.1448241452
 H          0.7333453891        3.8147593714       -1.4385346039
 H         -1.8332031367        2.5034619261       -2.6077838532
 H         -1.6075901858        3.0930048433       -0.9056121765
 H          0.1097366483        0.9193544613       -2.3047950544
