  62
        -98.94477327
 C         -1.1637502197       -1.7750903553       -0.6766695392
 C         -1.2153098618       -0.4540787598       -1.1893622969
 C         -2.5069623831        0.2395623611       -1.0412360638
 C         -3.5416517962       -0.3922506620       -0.4612347675
 C         -4.9036633212        0.1993271940       -0.2405276770
 C         -5.0168483826        0.8605475251        1.1389956534
 C         -3.8725853008        1.8224780575        1.4588020862
 H         -4.0843549739        2.2695192331        2.4329454611
 H         -2.9413033359        1.2598471444        1.5644993414
 C         -3.6674621380        2.9337943004        0.4204051038
 H         -4.5640588677        3.0443484175       -0.1914118512
 H         -3.5139574292        3.8778495202        0.9477986960
 C         -2.4496324308        2.7266609112       -0.4824405507
 H         -1.5862163420        2.4825265196        0.1427990888
 H         -2.2397205629        3.6728366360       -0.9904929320
 C         -2.5937287631        1.6461599157       -1.5630078216
 H         -3.5252501947        1.7985528141       -2.1131205747
 H         -1.7586133689        1.7563573764       -2.2612193740
 H         -5.9672210652        1.3957788292        1.1877929908
 H         -5.0280948817        0.0770977961        1.9003025058
 H         -5.1061480490        0.9292487344       -1.0219778102
 H         -5.6388213490       -0.6048145067       -0.3079642609
 O         -3.4549305953       -1.6589872833        0.0206331452
 C         -2.2669634482       -2.3653319800       -0.0554658740
 O         -2.3219742040       -3.5082528564        0.4444283571
 H          0.9839059356       -0.2644720362        0.1537894060
 C          1.3148905231       -1.0696255918        0.7879410795
 C          0.9467748122       -2.3722615928        0.4813845792
 C          1.3679978457       -3.4010588778        1.3151321761
 C          2.1297780344       -3.1247035789        2.4373227098
 C          2.4845258047       -1.8241582140        2.7470053801
 C          2.0728996258       -0.7882318745        1.9141647134
 N          2.4515500307        0.5326292313        2.1709292146
 S          1.6560662013        1.8359133813        1.4969717653
 O          2.1843304510        2.9747767402        2.2225121013
 O          0.2207779118        1.6822379012        1.5568056257
 C          2.2442117561        1.9057493291       -0.1815511700
 C          1.4617922250        2.5258988724       -1.1330557887
 C          1.9297000305        2.6125902909       -2.4339833701
 C          3.1670918886        2.0821895159       -2.7593382148
 C          3.9458289329        1.4699268369       -1.7898207216
 C          3.4847700135        1.3822313266       -0.4866118785
 H          4.0646725321        0.9060779786        0.2868237654
 H          4.9075553399        1.0548136996       -2.0457955517
 H          3.5253358251        2.1439759206       -3.7750621980
 H          1.3210904509        3.0851336312       -3.1881579834
 H          0.4977064909        2.9133875067       -0.8477319168
 H          2.8656942294        0.7230773478        3.0697703994
 H          3.0712046651       -1.6081479153        3.6266612612
 H          2.4453514656       -3.9302789222        3.0828753967
 H          1.0768676343       -4.4168145166        1.0910692610
 C          0.0864923839       -2.6413373100       -0.7257049828
 H         -0.2786986372       -3.6779601868       -0.6477932467
 C          0.8428413756       -2.5274696690       -2.0424023960
 C          2.1672839196       -1.8472677653       -2.1906039953
 C          2.0848096828       -3.3406676849       -2.2618201816
 H          2.2241436017       -3.8263153899       -3.2156932700
 H          2.4627192214       -3.9013567709       -1.4199666721
 H          2.6148958785       -1.3991146166       -1.3179475146
 H          2.3385188618       -1.2871685935       -3.0968587002
 H          0.1643326389       -2.4400696068       -2.8849285972
 O         -0.2566144552        0.1262326926       -1.7580603587
