  62
        -98.94444343
 C         -1.3265982666       -1.5328077701       -0.1295867167
 C         -1.3380539868       -0.1162121842       -0.1552707918
 C         -2.5080781509        0.5220879803        0.4648896122
 C         -3.4782095684       -0.2300964393        1.0127500360
 C         -4.7224154673        0.2798943079        1.6879454876
 C         -5.8607027697        0.6253614056        0.7176761232
 C         -5.6527821203        1.8970378306       -0.1062273456
 H         -6.6113871236        2.1363774916       -0.5710515396
 H         -5.3994484981        2.7221624528        0.5599448426
 C         -4.5886836520        1.7744014957       -1.2060993157
 H         -4.9751657419        2.2006033739       -2.1347720328
 H         -4.3855818186        0.7186145531       -1.3999327410
 C         -3.2702050701        2.4827203469       -0.8941248529
 H         -3.4401838405        3.5597072125       -0.8325912122
 H         -2.5771842922        2.2953000940       -1.7178289975
 C         -2.5974495600        2.0170295276        0.4032234973
 H         -1.5774317253        2.4075644260        0.4203162555
 H         -3.1386383617        2.4012093463        1.2672538726
 H         -6.0166750773       -0.2224393085        0.0464284917
 H         -6.7689285598        0.7483860113        1.3123959379
 H         -5.0654739975       -0.5173832919        2.3508098279
 H         -4.4801715861        1.1541807898        2.2926175284
 O         -3.4260620540       -1.5889443858        1.0268944785
 C         -2.3639013407       -2.2664048372        0.4543752671
 O         -2.4575097338       -3.5091697975        0.5245404244
 H          1.5979861750       -0.3369747751       -0.3023738055
 C          1.8223093550       -1.2119798342        0.2843366487
 C          1.0053654008       -2.3306237439        0.1969592734
 C          1.2930677605       -3.4336107969        0.9941474943
 C          2.3801080617       -3.4201084868        1.8491189060
 C          3.2048955022       -2.3120260082        1.9176629958
 C          2.9187558367       -1.1991038320        1.1338803924
 N          3.7125314808       -0.0499075827        1.2164058512
 S          3.9162335733        0.9840421578       -0.0799207915
 O          3.9526505331        0.2727083191       -1.3363991213
 O          5.1194563959        1.7210023064        0.2546471495
 C          2.5417243812        2.1103328717       -0.0170377546
 C          2.1364205269        2.5915109965        1.2112802730
 C          1.1152622764        3.5254971975        1.2584750496
 C          0.5252666032        3.9650538359        0.0830698137
 C          0.9435561375        3.4706388797       -1.1414430446
 C          1.9623307119        2.5340514814       -1.1945268329
 H          2.3084472409        2.1139696248       -2.1256930225
 H          0.4739155112        3.8033632883       -2.0532725841
 H         -0.2694076901        4.6941933835        0.1216790124
 H          0.7781100979        3.9044030960        2.2103907832
 H          2.6159894412        2.2265937422        2.1046590577
 H          4.5476648930       -0.1331328546        1.7764115483
 H          4.0593044974       -2.3025316328        2.5773501345
 H          2.5927393221       -4.2833707449        2.4615755970
 H          0.6475984864       -4.2991228803        0.9458039868
 C         -0.1920877814       -2.3547559158       -0.7229404899
 H         -0.5645896752       -3.3875872366       -0.7587624914
 C          0.1695358258       -1.9305017306       -2.1323022735
 C          0.8824370651       -2.9027706402       -3.0209951933
 C         -0.5489522083       -2.5493913084       -3.2915198234
 H         -0.7769861957       -1.9313027700       -4.1469514332
 H         -1.3058191042       -3.2893228691       -3.0734582018
 H          1.0947884984       -3.8830642574       -2.6210864911
 H          1.6441644484       -2.5265756279       -3.6867842120
 H          0.4371268326       -0.8857661011       -2.2177462972
 O         -0.4378386733        0.5998124960       -0.6642463085
