  62
        -98.93749209
 C          1.2365210156        1.3148132842        0.2273052878
 C          2.1658409691        0.8602160709        1.1930265485
 C          2.8815365539       -0.3932323303        0.8941277538
 C          2.5905622065       -1.0621592588       -0.2369568592
 C          3.1234467548       -2.3673334934       -0.7905804376
 C          4.3653411467       -3.0218685292       -0.1914421964
 C          5.6683615120       -2.2602427494       -0.4342972180
 H          6.4637997805       -2.7524156587        0.1295073613
 H          5.9198794001       -2.3330532222       -1.4954229470
 C          5.6445363087       -0.7780384578       -0.0694490986
 H          6.6238208554       -0.3574589937       -0.3138673323
 H          4.9092981439       -0.2596447431       -0.6883123414
 C          5.3620121565       -0.4708669326        1.3997273401
 H          5.5228127566        0.6004265316        1.5499635988
 H          6.0744378967       -1.0055585872        2.0311030407
 C          3.9383383645       -0.7978768312        1.8814250172
 H          3.8418616819       -1.8491543377        2.1420421098
 H          3.7479823919       -0.2174557477        2.7892448948
 H          4.2209517954       -3.2042763927        0.8694032042
 H          4.4635843216       -4.0005139816       -0.6691460421
 H          2.2925254080       -3.0770835627       -0.7231073724
 H          3.2934637873       -2.1911919878       -1.8574048062
 O          1.6373124752       -0.6191091682       -1.1058492287
 C          0.9415678759        0.5646223466       -0.9117692138
 O          0.1150213020        0.8140828377       -1.8052731008
 H         -1.0215188355        0.8261312376        1.7573876799
 C         -1.6076050021        1.3826320570        1.0353933559
 C         -0.9888419026        2.3794515400        0.2896574489
 C         -1.7487250184        3.0796200781       -0.6365697856
 C         -3.0880228405        2.7774103177       -0.8160127298
 C         -3.6976183154        1.7797287864       -0.0782094716
 C         -2.9460308562        1.0760791365        0.8544239979
 N         -3.5545009531        0.0491181564        1.6094749580
 S         -4.1480623438       -1.2615080332        0.7508975936
 O         -5.2710964150       -0.8307238565       -0.0414898643
 O         -4.4195029180       -2.2747634708        1.7460434515
 C         -2.8119483017       -1.7859272841       -0.3057651540
 C         -2.6785077618       -1.2289702621       -1.5612273031
 C         -1.6118231955       -1.6173025592       -2.3551484441
 C         -0.7024105096       -2.5498183415       -1.8821913534
 C         -0.8483625533       -3.0967220218       -0.6167153831
 C         -1.9095642775       -2.7088054846        0.1840826429
 H         -2.0629125431       -3.1164547187        1.1708663630
 H         -0.1397765268       -3.8225809824       -0.2490513587
 H          0.1293127601       -2.8432785346       -2.5030424224
 H         -1.4848811030       -1.1800492004       -3.3315873785
 H         -3.4051749869       -0.5075189012       -1.8970119732
 H         -2.9651857962       -0.2898277024        2.3573168618
 H         -4.7340096654        1.5196687496       -0.2210949109
 H         -3.6646639569        3.3238056473       -1.5469785043
 H         -1.2870637770        3.8439258647       -1.2394785318
 C          0.4849970235        2.6028043411        0.5140074563
 H          0.6420861322        2.7765477072        1.5919970350
 C          1.0321091144        3.8271591608       -0.2031261704
 C          2.4794465746        3.9122021504       -0.5830305053
 C          1.4310552452        3.8033311943       -1.6471320681
 H          1.2228746572        4.6758665133       -2.2492077977
 H          1.3282378699        2.8710085413       -2.1790939014
 H          2.9901168684        4.8547730562       -0.4540885379
 H          3.0994896556        3.0497804426       -0.3854226506
 H          0.5782837221        4.7440282597        0.1608995587
 O          2.3834086027        1.4709970604        2.2747419313
