  62
        -98.93492814
 C          2.2611563011        0.6067357279        0.0756622878
 C          3.5312012544        1.1501908302        0.3763595741
 C          4.6252896560        0.1856572272        0.5813988469
 C          4.3596028226       -1.1292489725        0.4923111979
 C          5.3349540303       -2.2677948585        0.6091960805
 C          5.8519558524       -2.6827735976       -0.7788482313
 C          7.0719163281       -1.9049031180       -1.2710952089
 H          7.9463810977       -2.2049309742       -0.6899453925
 H          7.2494133617       -2.2019099088       -2.3072780539
 C          6.9450678969       -0.3803200913       -1.2116241965
 H          5.9553240611       -0.0794843741       -1.5601025376
 H          7.6738819811        0.0430925614       -1.9054916692
 C          7.2031322005        0.1925175803        0.1899297498
 H          7.9386841318        0.9965112808        0.1213025610
 H          7.6488810322       -0.5819835570        0.8137527412
 C          5.9715760536        0.7788781893        0.8966847226
 H          6.1269823789        0.7349865835        1.9797351725
 H          5.8732587649        1.8378503378        0.6384146112
 H          5.0293525760       -2.5681143860       -1.4896636657
 H          6.1144496060       -3.7423461031       -0.7526057006
 H          4.7839364390       -3.1062425254        1.0401632917
 H          6.1542192175       -2.0074105143        1.2726531963
 O          3.1153476823       -1.6116626374        0.2179542417
 C          2.0399443680       -0.7676637498       -0.0009565371
 O          0.9675885548       -1.3535406737       -0.2469015923
 O          3.7437727423        2.3896124380        0.4680131848
 C          1.0963084074        1.5499204321       -0.1648844544
 C         -0.0096602266        1.2582091909        0.8183639695
 C          0.2874959934        1.2770343175        2.1793334991
 C         -0.6853845675        0.9963978474        3.1177642449
 C         -1.9734516020        0.6850005761        2.7183254605
 C         -2.2848043662        0.6764367682        1.3643536549
 C         -1.3072145431        0.9744174556        0.4239911997
 H         -1.5714751978        0.9540772383       -0.6188921025
 N         -3.6039141480        0.4138875635        0.9447202255
 S         -3.8941414587       -0.6052049152       -0.3709890148
 O         -3.4018608843       -1.9374029018       -0.0952214029
 O         -3.4243675000        0.0236409607       -1.5779582594
 C         -5.6783760749       -0.6005746936       -0.3530431862
 C         -6.3618080953       -1.6679617103        0.1971866411
 C         -7.7473439415       -1.6342961205        0.2263160418
 C         -8.4219777274       -0.5385228120       -0.2901739896
 C         -7.7221914500        0.5252369392       -0.8404613719
 C         -6.3372506406        0.4970963066       -0.8734771462
 H         -5.7515020253        1.2955572928       -1.2978767796
 H         -8.2502176893        1.3743268974       -1.2435113502
 H         -9.4999979476       -0.5145746830       -0.2663112727
 H         -8.2937871289       -2.4613399242        0.6502829417
 H         -5.7952806148       -2.5023294355        0.5787431360
 H         -4.1870429154        0.1184150278        1.7179017383
 H         -2.7319224978        0.4525506118        3.4508668022
 H         -0.4391933358        1.0101078238        4.1690228468
 H          1.2982291857        1.5076478285        2.4885461907
 H          1.4873454715        2.5567444132        0.0450251379
 C          0.6574855886        1.4915038933       -1.6123079427
 C         -0.0118207245        2.6746439859       -2.2428975604
 C          1.3894487160        2.3116975534       -2.6302348078
 H          1.5629292934        1.8854101676       -3.6069832171
 H          2.1968168671        2.9354212810       -2.2750495211
 H         -0.8069428792        2.4951930684       -2.9508261809
 H         -0.1567601310        3.5503285691       -1.6285174802
 H          0.3288214461        0.5012510665       -1.9110710332
