  62
        -98.94355954
 C         -2.6509064887       -0.1085511431       -0.1549882497
 C         -2.1335557713       -0.8751213823        0.9187835697
 C         -1.7538216591       -2.2604785360        0.5949985989
 C         -1.8929521145       -2.7145465194       -0.6622724616
 C         -1.5117428515       -4.0884605679       -1.1316798353
 C         -0.0720117541       -4.1269390902       -1.6601172266
 C          0.9563047671       -3.4989466873       -0.7182794472
 H          1.9393611091       -3.6413173854       -1.1738513248
 H          0.7893004113       -2.4203160454       -0.6630239715
 C          0.9645099035       -4.0855967786        0.6999437300
 H          2.0016690404       -4.2365535260        1.0072078487
 H          0.4784781832       -5.0627787712        0.7004351937
 C          0.3156617591       -3.1951435893        1.7618611113
 H          0.5870720648       -3.5881224583        2.7461209013
 H          0.7237618904       -2.1828267944        1.6925199668
 C         -1.2153396747       -3.1058885843        1.7146718212
 H         -1.6425105205       -4.1109613078        1.6776253292
 H         -1.5466200915       -2.6239553815        2.6394032612
 H         -0.0368261569       -3.5865372363       -2.6088542180
 H          0.1953367073       -5.1686979674       -1.8494782521
 H         -1.6257532617       -4.7901500949       -0.3074693957
 H         -2.1914199858       -4.3736128944       -1.9369413586
 O         -2.3860512133       -1.9500566793       -1.6701619053
 C         -2.7517089459       -0.6357687165       -1.4454269007
 O         -3.1707940932       -0.0433956010       -2.4621465509
 H         -0.4799547522        1.0681047576        0.8107761338
 C         -0.6051468027        1.9223065397        0.1632901510
 C         -1.8553970371        2.2369237139       -0.3458587352
 C         -1.9809795652        3.3589556329       -1.1570512896
 C         -0.8757621655        4.1315034560       -1.4658954476
 C          0.3790450721        3.7824232074       -0.9998870887
 C          0.5127212781        2.6663224468       -0.1824162969
 N          1.7663123574        2.2572594600        0.3010494144
 S          2.0429986571        0.5857435135        0.3308034587
 O          1.3996691614       -0.0374436039       -0.8027752477
 O          1.6977730887        0.0839971764        1.6357858972
 C          3.8157776357        0.5426359375        0.1378045303
 C          4.6091957337        0.7840867840        1.2437466929
 C          5.9865711459        0.7890973732        1.0915535669
 C          6.5446052197        0.5538543631       -0.1564399204
 C          5.7357223590        0.3098867069       -1.2561353686
 C          4.3570386970        0.3054507510       -1.1111680585
 H          3.6875175273        0.1135417294       -1.9344640499
 H          6.1718469513        0.1232132462       -2.2242192005
 H          7.6168595541        0.5577522488       -0.2722680543
 H          6.6184584964        0.9750639250        1.9449033000
 H          4.1293769697        0.9509968845        2.1940559738
 H          2.5357914664        2.7586092956       -0.1220055583
 H          1.2481282672        4.3634471237       -1.2688873792
 H         -0.9872790509        4.9990263718       -2.0983964837
 H         -2.9487979801        3.6102981432       -1.5645776291
 C         -3.0458799144        1.3558959161       -0.0428545238
 H         -3.7915017437        1.5278860677       -0.8327507591
 C         -3.6627097069        1.7429745515        1.2864378544
 C         -4.6190194279        2.8949355759        1.3418439945
 C         -5.1209290021        1.4942654899        1.5211719832
 H         -5.4342932777        1.1740681883        2.5031680787
 H         -5.6851838619        1.0469218191        0.7155717255
 H         -4.5887773314        3.5444493407        2.2029651846
 H         -4.8536442970        3.3997002023        0.4171431947
 H         -2.9934324348        1.6009562908        2.1246687413
 O         -1.9963429480       -0.4549651606        2.0989508531
