  62
        -98.93704713
 C          1.7731932629        1.0554812420       -0.1936015929
 C          2.3410513205       -0.1194860843       -0.7404741824
 C          3.8069421503       -0.2255718832       -0.6539079332
 C          4.5071415266        0.7787477059       -0.0957828683
 C          5.9916954559        0.7839721145        0.1351021093
 C          6.3362338145       -0.0837163887        1.3624995564
 C          7.1598247106       -1.3310247117        1.0416042665
 H          8.1940583910       -1.0350134882        0.8538198022
 H          7.1547516761       -1.9641382974        1.9314317874
 C          6.6835156610       -2.1548156138       -0.1587608423
 H          7.0225825414       -1.6860239656       -1.0837620208
 H          7.1854804264       -3.1228798911       -0.0989522998
 C          5.1704402471       -2.3903452847       -0.2544317140
 H          5.0070366379       -3.4119568263       -0.6037207534
 H          4.7050777157       -2.3138004957        0.7285104291
 C          4.4375479633       -1.4591379166       -1.2383824654
 H          5.1166753327       -1.1752341789       -2.0472675588
 H          3.6055431849       -2.0106596633       -1.6866435121
 H          6.8906420478        0.5145404365        2.0871029832
 H          5.4025306863       -0.3777667669        1.8464579335
 H          6.5029912146        0.4146612436       -0.7510082300
 H          6.2903377380        1.8185077846        0.3053849996
 O          3.9235546087        1.8982669381        0.4061562353
 C          2.5489106137        2.0647041265        0.3751494175
 O          2.1460555559        3.1318905667        0.8800769762
 O          1.6611234101       -1.0349486621       -1.2741655966
 C          0.2688448710        1.2582102138       -0.2343129386
 C         -0.4298720917        0.0984293560        0.4315294199
 C          0.0192580774       -0.3268872476        1.6800775838
 C         -0.5719342077       -1.3989975881        2.3177592343
 C         -1.6367822421       -2.0620975238        1.7324469218
 C         -2.1024816780       -1.6377847704        0.4950975382
 C         -1.5064946776       -0.5572507987       -0.1438436371
 H         -1.8816728244       -0.2616260666       -1.1089540457
 N         -3.1792860798       -2.2913569712       -0.1236610328
 S         -4.3598891565       -1.3902724221       -0.8866710609
 O         -5.5238131285       -2.2503114022       -0.8938729862
 O         -3.9027177715       -0.9409800342       -2.1766964055
 C         -4.6352678613        0.0045237795        0.1915774620
 C         -5.0487796510       -0.2425506666        1.4861735063
 C         -5.2386135554        0.8273205165        2.3449230406
 C         -5.0127896058        2.1203434887        1.8975226031
 C         -4.6052760982        2.3520016089        0.5933594886
 C         -4.4123799151        1.2847985561       -0.2696791612
 H         -4.0923354160        1.4208354373       -1.2896412380
 H         -4.4347212913        3.3585275999        0.2454510717
 H         -5.1574424573        2.9526767076        2.5681071499
 H         -5.5592796393        0.6514248700        3.3590445937
 H         -5.2261588070       -1.2583496584        1.7997278809
 H         -3.5764584948       -3.0500722850        0.4103427712
 H         -2.0942585507       -2.9074294419        2.2234935108
 H         -0.2035091046       -1.7225175298        3.2796097309
 H          0.8529927856        0.1898184922        2.1363841083
 H          0.0685689724        2.1650828618        0.3550202531
 C         -0.1768303701        1.4980268628       -1.6617495134
 C         -1.3501392603        2.3828640055       -1.9510873721
 C          0.0375299575        2.8512982712       -2.2680384606
 H          0.3417119453        2.9110288249       -3.3023129360
 H          0.4785306485        3.6103729087       -1.6381520234
 H         -2.0026298737        2.1180287620       -2.7701258167
 H         -1.8516514431        2.8338213737       -1.1083768855
 H         -0.0159770051        0.6362277149       -2.2999770786
