  62
        -98.94441259
 C         -2.0771965707       -1.3809434098        0.0043625701
 C         -2.3954317308       -0.4113434403       -0.9773978404
 C         -3.7485186307        0.1562811098       -0.9011368406
 C         -4.6087852807       -0.2679614198        0.0411358697
 C         -6.0243497707        0.2043717204        0.2311403795
 C         -6.1451057006        1.4921671508        1.0574001889
 C         -5.6942012206        2.7673504604        0.3438536382
 H         -6.1960415207        2.8393489299       -0.6216509218
 H         -6.0322018506        3.6102020607        0.9500564279
 C         -4.1758780506        2.8801036203        0.1468182981
 H         -3.6676338806        2.1804298406        0.8147766384
 H         -3.8455306306        3.8831458004        0.4265264776
 C         -3.7015680707        2.6308607896       -1.2850130318
 H         -2.6108022707        2.7025280096       -1.2999225019
 H         -4.0981925107        3.4078269193       -1.9424847122
 C         -4.0970555608        1.2612339993       -1.8526307611
 H         -5.1617886308        1.2436505892       -2.0835331210
 H         -3.5355868208        1.0973393488       -2.7756256811
 H         -5.5735518005        1.3700157312        1.9804617989
 H         -7.1966066706        1.6069664609        1.3304324389
 H         -6.5496571107       -0.5939304294        0.7598292999
 H         -6.4978872407        0.3479437199       -0.7404273505
 O         -4.2779340107       -1.2234631093        0.9485560401
 C         -3.0112633807       -1.7793026993        0.9676997903
 O         -2.8399313006       -2.6199836689        1.8728997407
 O         -1.6124129608       -0.0217078908       -1.8853979206
 C         -0.7167194607       -2.0551771198        0.1042900303
 C          0.2944188093       -1.1335580695        0.7440875898
 C          0.8172978894       -1.4150161089        2.0008213499
 C          1.7484195495       -0.5723053086        2.5831310394
 C          2.1792340294        0.5641154911        1.9230020289
 C          1.6610733494        0.8537487704        0.6669182587
 C          0.7319936793        0.0054019702        0.0827756992
 H          0.3215394493        0.2441817297       -0.8869008409
 N          2.1037509593        2.0000829601       -0.0174262918
 S          3.7609845593        2.2204516100       -0.1137744420
 O          4.2337682494        2.8520078406        1.0935342976
 O          3.9840668093        2.9577263994       -1.3376785024
 C          4.4350887193        0.5721930500       -0.2346190613
 C          5.2790666094        0.0989087804        0.7489574389
 C          5.7509306393       -1.2009422196        0.6589787595
 C          5.3681323393       -2.0021024801       -0.4051855801
 C          4.5225258792       -1.5102689806       -1.3877434103
 C          4.0488388692       -0.2115462906       -1.3040502009
 H          3.3913337392        0.1995197591       -2.0533903110
 H          4.2265547891       -2.1345660510       -2.2153725299
 H          5.7299466792       -3.0159764002       -0.4711801596
 H          6.4099426594       -1.5852698193        1.4206641897
 H          5.5469915594        0.7544372608        1.5614887186
 H          1.6640213293        2.1242525997       -0.9178657619
 H          2.8999110795        1.2352629413        2.3618048185
 H          2.1428386195       -0.8022880081        3.5610200195
 H          0.4767509094       -2.2950112686        2.5269470004
 H         -0.8618028307       -2.9095992495        0.7781563007
 C         -0.2142342408       -2.5770637805       -1.2287264795
 C          0.8656437492       -3.6150958105       -1.2382628490
 C         -0.5330164109       -3.9841604006       -1.6305266287
 H         -0.7434234509       -4.1877491612       -2.6698615986
 H         -1.1168497308       -4.5801301403       -0.9439423084
 H          1.6180292091       -3.5673375309       -2.0099643891
 H          1.2336682692       -3.9621221100       -0.2848004389
 H         -0.2041754308       -1.8292129508       -2.0100819798
