  62
        -98.94029163
 C         -2.0635620749       -1.0131171626        0.1405642972
 C         -2.3494127320        0.3753381571        0.1438857660
 C         -3.7070064173        0.7482940979        0.5779283551
 C         -4.5655365148       -0.2063256568        0.9763089142
 C         -5.9901732990        0.0315599141        1.3833291718
 C         -6.9381943373       -0.0856519044        0.1816038825
 C         -6.4908861287        0.7188766439       -1.0389176355
 H         -5.5619175779        0.2938250151       -1.4258283167
 H         -7.2506459009        0.5862939391       -1.8122080064
 C         -6.2884394053        2.2170841667       -0.7725069765
 H         -6.7481617966        2.7828353451       -1.5856696634
 H         -6.7983951688        2.5020959428        0.1484175935
 C         -4.8247101120        2.6558703837       -0.6968474101
 H         -4.7952201765        3.7484442543       -0.7246653356
 H         -4.2881230832        2.2931787714       -1.5774168055
 C         -4.0575239980        2.2095616026        0.5544181057
 H         -3.1040999426        2.7462980088        0.5696406985
 H         -4.6201059373        2.4856225945        1.4486251303
 H         -7.0036642604       -1.1374070131       -0.1067930893
 H         -7.9314899123        0.2433775486        0.4922356592
 H         -6.2652639329       -0.7187108591        2.1265676461
 H         -6.0744794722        1.0198412630        1.8312254892
 O         -4.2381152260       -1.5230649623        1.0103680461
 C         -2.9902161113       -1.9564884275        0.5957733627
 O         -2.8250452429       -3.1894145536        0.6845812311
 H          0.9714373152        0.3344169839       -1.3457101090
 C          1.1714923478        0.1309426064       -0.3054209611
 C          0.3983835215       -0.7964835757        0.3746617554
 C          0.6548854388       -1.0169249491        1.7244212349
 C          1.6536353756       -0.3195059284        2.3780033866
 C          2.4152942163        0.6152117700        1.6995383859
 C          2.1635303031        0.8453163953        0.3535549182
 N          2.9262982823        1.8006317238       -0.3383283712
 S          4.5859680015        1.7792865738       -0.1545357600
 O          4.9498250377        2.3889868007        1.1002212428
 O          5.1085297689        2.4164211650       -1.3427564660
 C          5.0162715328        0.0478316153       -0.1341765743
 C          4.7934747564       -0.6866784328       -1.2823596684
 C          5.0748652186       -2.0427978977       -1.2763636660
 C          5.5687041577       -2.6397269743       -0.1261790747
 C          5.7902403932       -1.8883310694        1.0171211985
 C          5.5099864748       -0.5309635771        1.0167149879
 H          5.6679285772        0.0892525860        1.8837722226
 H          6.1766482399       -2.3548506197        1.9089460399
 H          5.7831635334       -3.6968056964       -0.1228500660
 H          4.9060006213       -2.6295719825       -2.1650601931
 H          4.4167129669       -0.1884198991       -2.1611636793
 H          2.6556494632        1.9239459841       -1.3022754950
 H          3.1862783302        1.1822432737        2.1955539183
 H          1.8381748666       -0.4999414521        3.4261671520
 H          0.0515371627       -1.7383851991        2.2586258537
 C         -0.7143978663       -1.5647952346       -0.2926347980
 H         -0.6942534049       -2.5936557204        0.1007652491
 C         -0.5379691109       -1.6774319948       -1.8001185787
 C         -1.6893953808       -2.0792226644       -2.6716349041
 C         -1.1232799755       -0.6958505720       -2.7685499607
 H         -0.5484503814       -0.4404117351       -3.6472930566
 H         -1.6962849634        0.1266576122       -2.3709649348
 H         -1.5079950443       -2.7701323062       -3.4810337047
 H         -2.6510179453       -2.2075450536       -2.1958341217
 H          0.4301759832       -2.0958923638       -2.0585590399
 O         -1.5348868926        1.2697322277       -0.2000075297
