  62
        -98.94425940
 C         -1.7333570495       -1.2531376758        0.4241942255
 C         -1.7876270617       -0.3185399969       -0.6380490019
 C         -3.1348060048        0.0129135985       -1.1271145462
 C         -4.2042040354       -0.5961434983       -0.5831699913
 C         -5.6319714131       -0.3172639955       -0.9520604210
 C         -6.2320163820        0.7759922839       -0.0571664065
 C         -5.3570817559        2.0239239363        0.0625151559
 H         -5.8942042438        2.7394186729        0.6889873387
 H         -4.4348627950        1.7659516131        0.5885840967
 C         -5.0049161111        2.6828713987       -1.2784718293
 H         -5.6933125687        2.3404957184       -2.0519828657
 H         -5.1360064941        3.7628211816       -1.1828308883
 C         -3.5656015926        2.4498938555       -1.7427161247
 H         -2.8725598517        2.7042260255       -0.9359741544
 H         -3.3617267609        3.1322597871       -2.5724860470
 C         -3.2395794686        1.0312619362       -2.2271604839
 H         -3.9716202892        0.7203670303       -2.9754119931
 H         -2.2540628889        1.0630455120       -2.7012528053
 H         -7.2094839510        1.0519767540       -0.4567468114
 H         -6.3779563465        0.3632154972        0.9437057829
 H         -5.6801317511       -0.0143607319       -1.9960450182
 H         -6.2062199045       -1.2360665630       -0.8221102916
 O         -4.1079711752       -1.5134154719        0.4127829953
 C         -2.8783822124       -1.8460793591        0.9565949796
 O         -2.9344781035       -2.6692588802        1.8924009526
 H          2.1087887721       -0.5571720416        0.5984800372
 C          1.5242307435        0.0135546801        1.2979194146
 C          0.2445183616       -0.3971305854        1.6323183459
 C         -0.4741264043        0.3532285850        2.5604667932
 C          0.0737875573        1.4858396656        3.1295409738
 C          1.3454114182        1.9038803520        2.7742942232
 C          2.0705189473        1.1650951186        1.8498916365
 N          3.3742924419        1.5418046736        1.4727150886
 S          3.6592663680        1.8257306036       -0.1624105494
 O          4.9004105393        2.5726045869       -0.1806512627
 O          2.5292253223        2.4696115929       -0.7899077511
 C          3.9487548043        0.2180235229       -0.8660442194
 C          5.0611897363       -0.4843146049       -0.4452745132
 C          5.3086248389       -1.7335622380       -0.9908087884
 C          4.4469823686       -2.2521675501       -1.9462093438
 C          3.3370030484       -1.5312147962       -2.3605097870
 C          3.0804218373       -0.2821595196       -1.8163304992
 H          2.2144168722        0.3003592736       -2.0914669106
 H          2.6644495507       -1.9375392587       -3.0994996589
 H          4.6391862977       -3.2251377972       -2.3709817537
 H          6.1688592675       -2.2990947608       -0.6708637363
 H          5.7082057690       -0.0398824256        0.2923421353
 H          3.7465677214        2.3107110577        2.0135870558
 H          1.7707265609        2.7964516328        3.2086454878
 H         -0.4952331894        2.0553893506        3.8492793193
 H         -1.4716604270        0.0320609442        2.8299873571
 C         -0.3968379684       -1.6289669315        1.0399955509
 H         -0.6277918612       -2.3195552393        1.8640896615
 C          0.4750931072       -2.3448662027        0.0306118217
 C          1.5526664265       -3.2763478063        0.4957020711
 C          0.3165367106       -3.8229959033       -0.1514557976
 H          0.3907177957       -4.2295612811       -1.1486291734
 H         -0.4108922817       -4.3244657756        0.4704918513
 H          1.6679518704       -3.4122667955        1.5602838166
 H          2.4792518723       -3.3069436008       -0.0575424227
 H          0.6609651651       -1.7499558289       -0.8556969038
 O         -0.7687194645        0.2095783495       -1.1553573472
