  62
        -98.93875239
 C          1.8686448898        0.9993917885       -0.4385424496
 C          2.5608406615        0.6771944371        0.7596009960
 C          3.5962345223       -0.3578685017        0.6706577222
 C          3.8168215789       -0.9557734152       -0.5138540242
 C          4.8564461165       -2.0090884537       -0.7644451780
 C          6.1855926089       -1.3856488138       -1.2125267756
 C          6.6585524575       -0.2363123575       -0.3224937668
 H          5.9581415479        0.5966577845       -0.4162503038
 H          7.6188929234        0.1048799871       -0.7149379878
 C          6.8124648126       -0.6034421257        1.1600833752
 H          7.7587786202       -0.1984305825        1.5246708467
 H          6.8601527450       -1.6873758204        1.2702039109
 C          5.7117050857       -0.0504895735        2.0673073036
 H          5.5943925717        1.0213245010        1.8894131162
 H          6.0309877820       -0.1772495927        3.1051426089
 C          4.3360327572       -0.7148248366        1.9290897964
 H          3.7098690436       -0.3600876515        2.7530893028
 H          4.4398855082       -1.7983686619        2.0190401388
 H          6.0627891407       -1.0042845106       -2.2288895332
 H          6.9447185577       -2.1697506979       -1.2331302709
 H          4.4908773641       -2.6711515779       -1.5514730975
 H          5.0024771871       -2.5890067771        0.1450582893
 O          3.1385607027       -0.6264806925       -1.6394732448
 C          2.1530030924        0.3614825229       -1.6458476660
 O          1.6625693087        0.5495950279       -2.7729375101
 O          2.3150626993        1.2431904036        1.8586059501
 C          0.7749905419        2.0435714733       -0.2749384932
 C         -0.3027296483        1.4980466400        0.6306396651
 C         -0.8684561856        2.2923049884        1.6221415583
 C         -1.8535176275        1.7913661204        2.4532992858
 C         -2.3077480049        0.4941112442        2.2964084021
 C         -1.7505280631       -0.3075345031        1.3076671702
 C         -0.7494284143        0.1922634795        0.4872598231
 H         -0.3169185111       -0.4499147616       -0.2668783394
 N         -2.1952687921       -1.6333839883        1.1079694520
 S         -3.0294374647       -1.9278063907       -0.3148117261
 O         -3.4263630883       -3.3164723788       -0.2512078495
 O         -2.2232652662       -1.5305725849       -1.4387625443
 C         -4.4736905142       -0.8863386200       -0.1875305268
 C         -4.3548224942        0.4578837655       -0.4806097819
 C         -5.4568782008        1.2803222723       -0.3066708928
 C         -6.6507028516        0.7482773577        0.1561950335
 C         -6.7542494139       -0.6040388195        0.4453334467
 C         -5.6548176762       -1.4307170958        0.2780874894
 H         -5.6884387688       -2.4878771196        0.4868758179
 H         -7.6845662662       -1.0157390919        0.8020307574
 H         -7.5055030101        1.3921013010        0.2902342728
 H         -5.3756470741        2.3311997659       -0.5329268136
 H         -3.4136973461        0.8362903101       -0.8454488975
 H         -2.7287151950       -2.0001563838        1.8848666304
 H         -3.0781117112        0.0977482438        2.9408175009
 H         -2.2741482530        2.4156521119        3.2263656660
 H         -0.5121463207        3.3034716432        1.7518510196
 H          1.2404797020        2.8896009901        0.2591859459
 C          0.2026940781        2.5939088679       -1.5704253587
 C         -0.9518215438        1.9614388311       -2.2811657674
 C         -1.1334885424        3.2774211074       -1.5894858298
 H         -1.2457914745        4.1623863416       -2.1972238111
 H         -1.7052353473        3.2911319643       -0.6737004407
 H         -0.9161406260        1.9347391328       -3.3595788844
 H         -1.3857366872        1.0687880878       -1.8558187616
 H          0.9757563100        3.0137417278       -2.2046227530
