  62
        -98.94224902
 C         -1.2445867044       -1.2433279246        0.0850689565
 C         -1.5817451770       -0.0995617763        0.8430243520
 C         -2.6309819511        0.7805133729        0.2983276372
 C         -3.1799463312        0.4694600325       -0.8904995364
 C         -4.2874828053        1.1928042647       -1.6072163349
 C         -5.6722830268        0.9147391567       -0.9931896420
 C         -5.7081714239        0.8546264943        0.5326333971
 H         -6.6963843335        0.4921857042        0.8277622098
 H         -4.9777053949        0.1211586673        0.8790411409
 C         -5.4693399965        2.1844397435        1.2437365297
 H         -5.5341353082        1.9981752292        2.3187304227
 H         -6.2690894656        2.8795936107        0.9775923629
 C         -4.1314169694        2.8645704608        0.9539795086
 H         -4.0334190937        3.7037666528        1.6494025726
 H         -4.1248991759        3.2910868869       -0.0455934411
 C         -2.9003876141        1.9871641188        1.1642344170
 H         -2.0073102029        2.6199700115        1.0735343727
 H         -2.8963991289        1.6194043041        2.1966530335
 H         -6.3671888487        1.6781733386       -1.3462713734
 H         -6.0144541470       -0.0526875475       -1.3680671415
 H         -4.0724224616        2.2576146325       -1.6312160867
 H         -4.2843745083        0.8324149846       -2.6383169101
 O         -2.8051470798       -0.6299901447       -1.6034397076
 C         -1.8184422559       -1.4927817730       -1.1603412698
 O         -1.5543393403       -2.4216781166       -1.9479441696
 O         -1.0262268454        0.1808707917        1.9412701807
 C         -0.1435376853       -2.1570554458        0.5881691188
 C          1.0792846485       -2.0412689144       -0.2909876350
 C          1.9102179112       -3.1130628318       -0.5933952542
 C          3.0330288492       -2.9252559349       -1.3813515780
 C          3.3662767213       -1.6719668692       -1.8626939816
 C          2.5435615648       -0.5924049132       -1.5613908533
 C          1.4123562691       -0.7887041137       -0.7870892405
 H          0.7675334347        0.0522622388       -0.5871707199
 N          2.8323558494        0.6986295167       -2.0266464278
 S          2.4664428223        2.0313491158       -1.0853355563
 O          1.0446537683        2.2710247629       -1.0745511498
 O          3.2776078347        3.0902098342       -1.6488683986
 C          3.0703758487        1.6234111115        0.5430651782
 C          2.2064202301        1.2951904096        1.5670931619
 C          2.7358454023        0.9406086249        2.7989381007
 C          4.1083249877        0.9212273767        2.9867361537
 C          4.9637839624        1.2616547168        1.9492495437
 C          4.4420453437        1.6129397392        0.7159528195
 H          5.0715793627        1.8974300925       -0.1114819492
 H          6.0314471360        1.2521052384        2.0979975105
 H          4.5120573392        0.6424437890        3.9472608006
 H          2.0613079234        0.6780737548        3.5983793771
 H          1.1394946371        1.3109738478        1.4069687901
 H          3.7199253678        0.7981787349       -2.4962050851
 H          4.2444606203       -1.5291599135       -2.4732169823
 H          3.6642528482       -3.7681507889       -1.6181988661
 H          1.6743552401       -4.0958875214       -0.2196490673
 H          0.1277909763       -1.7634687771        1.5803912030
 C         -0.6405607983       -3.5782727023        0.7479488823
 C         -0.0781417306       -4.4610521044        1.8208632623
 C         -1.4705286146       -3.9228809626        1.9473749624
 H         -2.3026502639       -4.5990958707        1.8215634184
 H         -1.6527501500       -3.1370634643        2.6660633495
 H          0.0447425898       -5.5127626452        1.6103559671
 H          0.6835982454       -4.0456717941        2.4631330704
 H         -0.9171462879       -4.0302905511       -0.1975690362
