  62
        -98.94592786
 C          1.1180249261        1.0650417555       -0.4474448067
 C          2.1637502144        1.2419067189        0.4951173627
 C          2.9177005586        0.0422769202        0.8699843416
 C          2.5631435330       -1.1504505926        0.3597951617
 C          3.2023549251       -2.4759397820        0.6749459754
 C          4.4622541609       -2.7754518030       -0.1490700636
 C          5.6983839220       -1.9614506164        0.2349863910
 H          5.8662333810       -2.0439324689        1.3093013857
 H          6.5530028406       -2.4216932661       -0.2648179306
 C          5.6308150923       -0.4810995369       -0.1654463054
 H          4.8454145963       -0.3412501339       -0.9115538398
 H          6.5733186459       -0.1867627350       -0.6324559509
 C          5.3826377020        0.4797872845        0.9973626062
 H          5.3182557435        1.4943857336        0.5961907859
 H          6.2268408490        0.4442945172        1.6895287835
 C          4.0950093599        0.2007628994        1.7841291269
 H          4.2165854610       -0.6875792097        2.4042942790
 H          3.8964589058        1.0556750836        2.4354026332
 H          4.6947615980       -3.8344032186       -0.0147568642
 H          4.2342716552       -2.6153882807       -1.2052516638
 H          3.4393789016       -2.5226205123        1.7384983552
 H          2.4552407829       -3.2416936488        0.4545687903
 O          1.5377447080       -1.2887007578       -0.5174609980
 C          0.7991150706       -0.1956497336       -0.9534787446
 O         -0.0864736618       -0.5011101802       -1.7758185418
 O          2.4567583436        2.3611095554        0.9978620850
 C          0.3248938813        2.3067826106       -0.8166324833
 C         -0.8952185405        2.4355806209        0.0656892888
 C         -1.1976117489        3.6323080827        0.7048918065
 C         -2.3009117050        3.7271649754        1.5345145712
 C         -3.1038198782        2.6247704390        1.7670568306
 C         -2.8082118771        1.4242350685        1.1323782069
 C         -1.7306012138        1.3465925934        0.2642644715
 H         -1.5249552957        0.4132577355       -0.2334304498
 N         -3.5777199060        0.2709417081        1.3480129776
 S         -2.7889836987       -1.2044046650        1.4774328550
 O         -3.6911308929       -2.0212143955        2.2670886063
 O         -1.4560957270       -1.0520166120        2.0164642707
 C         -2.7426884102       -1.8688809266       -0.1709179904
 C         -3.7589848227       -1.5680148500       -1.0548847991
 C         -3.7360610028       -2.1404497708       -2.3159998849
 C         -2.7096193611       -3.0038731318       -2.6661187128
 C         -1.7002758263       -3.2990103901       -1.7646491996
 C         -1.7150106941       -2.7266899046       -0.5035300400
 H         -0.9363953748       -2.9117618757        0.2203765396
 H         -0.8941405408       -3.9598555247       -2.0405007033
 H         -2.6907694415       -3.4443934768       -3.6506724692
 H         -4.5156346323       -1.9077196273       -3.0237559289
 H         -4.5366796127       -0.8865973698       -0.7519193137
 H         -4.3072407997        0.3642260326        2.0402095528
 H         -3.9461967086        2.6878447710        2.4390104383
 H         -2.5256610528        4.6624242048        2.0243495412
 H         -0.5511989458        4.4858954215        0.5645243096
 H          0.9876545628        3.1539015920       -0.5909271157
 C         -0.0720059510        2.3828582921       -2.2780097881
 C         -0.3352993398        3.7227203594       -2.8946256952
 C          0.8925954860        2.9513540906       -3.2733612215
 H          0.9432049002        2.5023684603       -4.2536640410
 H          1.8467310994        3.2970890224       -2.9025474907
 H         -1.1323575677        3.8072403726       -3.6168798887
 H         -0.2114120052        4.5957224497       -2.2721737915
 H         -0.6843810804        1.5497517339       -2.5968670524
