  62
        -98.94300967
 C         -2.4076065009       -1.0824776393        0.0037358614
 C         -3.4475941808       -0.7331574185        0.9076777912
 C         -4.5434323005        0.0739135516        0.3639448309
 C         -4.5283242605        0.4257447109       -0.9341376193
 C         -5.5875168902        1.2174274809       -1.6518079797
 C         -5.4535500897        2.7376796509       -1.4886354105
 C         -5.8242852095        3.2790245417       -0.1073588407
 H         -5.8982303891        4.3645010417       -0.1983230613
 H         -6.8104131296        2.9083447922        0.1739380195
 C         -4.8112322795        2.9440112220        0.9963297694
 H         -3.8660282997        2.6365597714        0.5426578595
 H         -4.6055342492        3.8400292422        1.5861310889
 C         -5.2690739599        1.8569194326        1.9686714500
 H         -4.4615229399        1.6733150027        2.6817904400
 H         -6.1394021697        2.2077429032        2.5275382198
 C         -5.6240621903        0.5221389824        1.3009160307
 H         -6.5734743103        0.6062973025        0.7724744907
 H         -5.7224654806       -0.2365827072        2.0810184911
 H         -4.4278395996        3.0260826204       -1.7300653007
 H         -6.1116319596        3.2026406408       -2.2263377807
 H         -6.5736215403        0.8997633914       -1.3115018395
 H         -5.4908548403        0.9750283903       -2.7123534496
 O         -3.5222122106        0.0650970801       -1.7718699992
 C         -2.4376905308       -0.6807595000       -1.3314520288
 O         -1.6019048110       -0.9057973508       -2.2318807488
 O         -3.4628806109       -1.0947837879        2.1137621014
 C         -1.2866614112       -1.9410338394        0.5649861018
 C         -0.0336170809       -1.1479877397        0.8513949313
 C          0.4478140092       -1.0256741492        2.1497220912
 C          1.6201107694       -0.3363197495        2.4064807408
 C          2.3366115196        0.2433226598        1.3747218505
 C          1.8608014795        0.1323010392        0.0749299506
 C          0.6863126892       -0.5594242705       -0.1790557990
 H          0.3202555292       -0.6371073309       -1.1924448890
 N          2.5886568896        0.7257660985       -0.9822717198
 S          4.0667196894       -0.0088799422       -1.3247039494
 O          4.3919863895        0.3877227370       -2.6772733097
 O          4.0192092689       -1.4308867721       -1.0672308687
 C          5.2022587397        0.7701692280       -0.1966037199
 C          5.8055059895        0.0209371083        0.7945688705
 C          6.6869593297        0.6455845084        1.6631631801
 C          6.9480924902        2.0003997583        1.5253485394
 C          6.3360399004        2.7379858180        0.5225541091
 C          5.4543983701        2.1196173478       -0.3496742006
 H          4.9620730303        2.6522914076       -1.1462141008
 H          6.5430241907        3.7908543378        0.4179652285
 H          7.6335949004        2.4844223884        2.2029769591
 H          7.1642070096        0.0739284787        2.4427750704
 H          5.5675910391       -1.0282615416        0.8646372510
 H          2.0489897796        0.7733797382       -1.8364307798
 H          3.2482108398        0.7849182395        1.5676545502
 H          1.9801501295       -0.2497180491        3.4201200608
 H         -0.1096952109       -1.4708034586        2.9610510315
 H         -1.6716684213       -2.3109534588        1.5250210220
 C         -0.9600642016       -3.1370017900       -0.3097841976
 C         -0.2735749820       -4.3189129599        0.3033592230
 C         -1.7093468721       -4.4191064096       -0.1148777169
 H         -1.9562406523       -5.0080366100       -0.9854562566
 H         -2.4644717620       -4.4433698590        0.6572628331
 H          0.4728336978       -4.8379026905       -0.2783623768
 H         -0.0554762020       -4.2769710894        1.3596990329
 H         -0.6894070516       -2.8696578906       -1.3234035578
