  62
        -98.94233142
 C          1.5089910911        1.3280322592        0.2878362195
 C          2.2018351802        0.8672317183       -0.8576715006
 C          3.2297305696       -0.1560470924       -0.6117422607
 C          3.4603154199       -0.5731572421        0.6467074393
 C          4.4289641392       -1.6542011926        1.0285891593
 C          3.7404200082       -3.0261322921        1.0569111701
 C          2.9134925074       -3.3255456620       -0.1937079194
 H          2.4932608267       -4.3268717916       -0.0760652688
 H          2.0731806279       -2.6284911814       -0.2411700193
 C          3.7039801369       -3.2536798531       -1.5079517598
 H          4.7728759269       -3.3134929538       -1.2999782602
 H          3.4442414960       -4.1196302131       -2.1206859293
 C          3.4224192174       -2.0098638832       -2.3535276201
 H          2.3442319174       -1.8987470524       -2.4970074597
 H          3.8666564169       -2.1636083839       -3.3405889403
 C          3.9738644187       -0.6878793934       -1.8041149209
 H          5.0368368787       -0.7974474441       -1.5800869213
 H          3.8630667389        0.0674419964       -2.5877641711
 H          4.5046109277       -3.7952516126        1.1816989601
 H          3.0763646786       -3.0630060113        1.9235289704
 H          5.2544738689       -1.6641075635        0.3197955389
 H          4.8186510198       -1.4324267026        2.0234227790
 O          2.7874471607       -0.0921297812        1.7227184595
 C          1.7883236113        0.8575590795        1.5709921696
 O          1.2310391921        1.1938606603        2.6334681297
 H         -0.3655816003       -0.1847599096       -0.2717783191
 C         -0.9929323600        0.5169544407       -0.8087586991
 C         -0.7137393890        1.8743943905       -0.7319976497
 C         -1.5420701386        2.7527047709       -1.4224078196
 C         -2.6129732493        2.2833263014       -2.1631634490
 C         -2.8851823903        0.9285450415       -2.2349643984
 C         -2.0592472507        0.0440458112       -1.5584584784
 N         -2.3617864317       -1.3426715586       -1.5916399577
 S         -3.5611448515       -1.7643072373       -0.4951080970
 O         -3.5886626326       -3.2086752973       -0.4644743365
 O         -4.7811593712       -1.1048793365       -0.8811877767
 C         -2.9660862004       -1.1167447872        1.0557818925
 C         -2.1199458206       -1.8961353275        1.8194048124
 C         -1.5445214597       -1.3476678275        2.9540159919
 C         -1.8096437785       -0.0302209372        3.2948606315
 C         -2.6617498083        0.7383819632        2.5173525516
 C         -3.2448985692        0.1948112232        1.3840537421
 H         -3.9071356391        0.7627345534        0.7506663222
 H         -2.8609008574        1.7639474834        2.7835483813
 H         -1.3346066378        0.4029914828        4.1604161911
 H         -0.8777054898       -1.9395684778        3.5606937918
 H         -1.9330393715       -2.9145984078        1.5161231427
 H         -1.5539062721       -1.9226353991       -1.4106486379
 H         -3.7257386509        0.5439669920       -2.7887653978
 H         -3.2458018290        2.9815414816       -2.6892404290
 H         -1.3487035478        3.8120935507       -1.3746847201
 C          0.4115203618        2.3629763600        0.1490115196
 H          0.0000961024        2.5021511307        1.1605324498
 C          0.9927086226        3.6822772294       -0.3238454411
 C          0.4566584638        4.9828298600        0.1926470886
 C          1.8020456936        4.4974044692        0.6384458682
 H          2.6841122638        5.0020790184        0.2739304476
 H          1.9017863838        4.1170217695        1.6449312083
 H         -0.3521336559        4.9457067109        0.9067982290
 H          0.4162167241        5.8267533498       -0.4796481717
 H          1.3330578921        3.6397941488       -1.3520173613
 O          1.9702230800        1.2778343280       -2.0247358107
