  62
        -98.93753560
 C         -2.5368705670       -1.1724612812        0.2564347365
 C         -2.7557531025       -0.3573819415       -0.8791496113
 C         -3.6743280637        0.7803022106       -0.6951887512
 C         -4.2374053181        0.9883249197        0.5074058872
 C         -5.2327789197        2.0488114284        0.9076031249
 C         -4.9920545592        3.4762253852        0.3974924415
 C         -3.5157033336        3.8718892835        0.2484288024
 H         -3.3498970234        4.8222170820        0.7594882113
 H         -2.8780456464        3.1286047517        0.7308763254
 C         -3.0874397646        4.0425308606       -1.2112203587
 H         -3.8717971959        4.5847676352       -1.7436600705
 H         -2.1853786738        4.6583177092       -1.2423194476
 C         -2.7774240387        2.7475015578       -1.9613677356
 H         -1.8510135372        2.3087460524       -1.5798594267
 H         -2.6017753662        3.0005574938       -3.0095166775
 C         -3.8673505698        1.6652538881       -1.8929274499
 H         -4.8617008700        2.1043501213       -1.9139070404
 H         -3.7518766151        1.0181038983       -2.7664518366
 H         -5.4932724360        3.6106589067       -0.5599116753
 H         -5.4797032971        4.1495343792        1.1044830739
 H         -6.2259736472        1.7182340465        0.5900730903
 H         -5.2273554729        2.0447199862        2.0003685102
 O         -3.9802027988        0.1863926284        1.5811437100
 C         -3.1273306370       -0.8999826009        1.4878976135
 O         -2.9737257031       -1.5287049235        2.5562012184
 H         -0.2493093174       -0.2524502222        1.0172260351
 C          0.3271347756       -0.8160710781        0.2918953635
 C         -0.2333285317       -1.9521458567       -0.2794428419
 C          0.5261385630       -2.6737383991       -1.1911007041
 C          1.8007091500       -2.2541518705       -1.5312968104
 C          2.3461688072       -1.1137084683       -0.9719909380
 C          1.6004711166       -0.3902196789       -0.0505016634
 N          2.1541338534        0.7729057180        0.5249130079
 S          3.5521139469        0.5524812827        1.4382928438
 O          3.5811471355       -0.7606165271        2.0417775045
 O          3.5950442937        1.6780575472        2.3463343059
 C          4.8724326527        0.7071517260        0.2545984091
 C          5.7334731870       -0.3522846139        0.0451402484
 C          6.7597572297       -0.2088228899       -0.8756580874
 C          6.9059389456        0.9848061702       -1.5658918444
 C          6.0338285497        2.0399852143       -1.3419845366
 C          5.0064933182        1.9038696399       -0.4219683466
 H          4.3108968045        2.6997102778       -0.2138746528
 H          6.1510183042        2.9666658770       -1.8803661214
 H          7.7045980093        1.0936416283       -2.2825455516
 H          7.4390103587       -1.0275155033       -1.0507788567
 H          5.5768145261       -1.2622572694        0.6018481169
 H          1.4847872858        1.3032404645        1.0649773735
 H          3.3339341205       -0.7778189135       -1.2420453233
 H          2.3758575505       -2.8223342908       -2.2461611230
 H          0.1182631498       -3.5654395044       -1.6379060567
 C         -1.6159577166       -2.3736226439        0.1577723018
 H         -1.5351952812       -2.7794080551        1.1778672307
 C         -2.2357777036       -3.4275327234       -0.7374016141
 C         -1.9822828384       -4.8824932508       -0.4848424760
 C         -3.3256589649       -4.2921992846       -0.1814890596
 H         -4.1594031701       -4.5459985138       -0.8186391698
 H         -3.5982489402       -4.1394664338        0.8531077811
 H         -1.8969136565       -5.5461476570       -1.3320646455
 H         -1.3453536080       -5.1428329032        0.3471923975
 H         -2.3363773514       -3.0924207492       -1.7632286526
 O         -2.2197108285       -0.5710687858       -1.9964434050
