  62
        -98.93956791
 C         -2.4621318921       -0.9764556715        0.5488380767
 C         -2.4085682765        0.3282693762       -0.0022145886
 C         -3.5888618137        1.1707659920        0.2449393284
 C         -4.6027347925        0.7098497053        0.9976726587
 C         -5.8613717007        1.4563322003        1.3472209557
 C         -6.9507505135        1.3789086049        0.2687032300
 C         -6.6782151258        2.2007899901       -0.9918064335
 H         -6.4369379409        3.2262502524       -0.7102563773
 H         -7.6088271600        2.2298770847       -1.5620876961
 C         -5.5677691220        1.6366282284       -1.8891871356
 H         -5.9007966802        1.6449378111       -2.9295258382
 H         -5.3788756799        0.5938244897       -1.6234339974
 C         -4.2502525331        2.4098264458       -1.8290372887
 H         -4.4004900740        3.4197756906       -2.2168245119
 H         -3.5272588753        1.9061261913       -2.4760112699
 C         -3.6406776646        2.5109791425       -0.4244941964
 H         -4.2070935154        3.2178491475        0.1812255850
 H         -2.6142327529        2.8733768975       -0.5202834999
 H         -7.8793975936        1.7390959721        0.7173402976
 H         -7.0987592730        0.3313410204       -0.0041124864
 H         -5.6240592018        2.5005172273        1.5525095422
 H         -6.2487337361        1.0011456453        2.2613332055
 O         -4.5864719836       -0.5266839378        1.5635089319
 C         -3.5321507260       -1.3972439584        1.3439835261
 O         -3.6568632386       -2.5004060410        1.9130724611
 O         -1.4432594354        0.7810059267       -0.6683039725
 C         -1.3368067483       -1.9792289570        0.3566127070
 C         -0.0045519797       -1.3255995724        0.6267952912
 C          0.3120732252       -0.9686387720        1.9343943631
 C          1.5204588775       -0.3677748802        2.2307482222
 C          2.4393178818       -0.1081814593        1.2290654275
 C          2.1328172608       -0.4578500574       -0.0783750225
 C          0.9207841136       -1.0692844257       -0.3719538342
 H          0.6870185809       -1.3166695262       -1.3960664487
 N          3.0574540360       -0.1797424886       -1.1000172665
 S          4.6354622458       -0.7133862480       -0.9087355458
 O          5.1589201667       -0.8430270961       -2.2514544015
 O          4.6949013649       -1.8962978488       -0.0807746310
 C          5.4585817053        0.6403005084       -0.0959123955
 C          5.4289811438        1.8810472081       -0.7018169722
 C          6.0740174849        2.9417089956       -0.0861437372
 C          6.7368376507        2.7443817408        1.1162054726
 C          6.7604869087        1.4917346633        1.7099170025
 C          6.1160809897        0.4267933648        1.0996926632
 H          6.1033840347       -0.5633372664        1.5268929365
 H          7.2764814772        1.3403392547        2.6444600627
 H          7.2380839911        3.5718651810        1.5931116000
 H          6.0576190069        3.9174079485       -0.5446131056
 H          4.9062959662        1.9924177348       -1.6371780700
 H          2.7141743274       -0.3839387500       -2.0271899523
 H          3.3821672608        0.3647297006        1.4508581955
 H          1.7494571129       -0.0959132419        3.2500980169
 H         -0.4086635299       -1.1660862537        2.7167569199
 H         -1.4989281498       -2.7394309980        1.1383119988
 C         -1.3826223399       -2.7162099838       -0.9742065030
 C         -2.6954955267       -3.0846623924       -1.5965776456
 C         -1.8166131641       -2.0636263056       -2.2508970693
 H         -1.3075740136       -2.3380842614       -3.1638519370
 H         -2.1112372466       -1.0270679833       -2.2114907298
 H         -2.7919469606       -4.0560690009       -2.0576473089
 H         -3.5932793998       -2.7465296429       -1.0995692664
 H         -0.5905774422       -3.4559574821       -1.0501883419
