  62
        -98.94116359
 C          2.0155461980       -0.3685020557       -0.0970046287
 C          3.1139280553       -1.0585956282       -0.6741649429
 C          4.3357222747       -0.2751618832       -0.8845372734
 C          4.3422170518        1.0378595534       -0.5939136590
 C          5.4998862394        1.9809302107       -0.7786282201
 C          6.5060570091        1.9682124784        0.3804171280
 C          7.3873611789        0.7211560242        0.4636645818
 H          7.8562480908        0.5439829883       -0.5047434429
 H          8.1850130813        0.9397893890        1.1764482457
 C          6.6507524320       -0.5456870864        0.9209831290
 H          5.7039181652       -0.2664745752        1.3893275500
 H          7.2443189363       -1.0574761607        1.6819075859
 C          6.3742215848       -1.5552655072       -0.1933618761
 H          5.8178258424       -2.3936726545        0.2338183877
 H          7.3196688687       -1.9419776979       -0.5799426412
 C          5.5596925319       -0.9937144618       -1.3661821798
 H          6.1779098575       -0.3299748978       -1.9702469776
 H          5.2311931322       -1.8299702455       -1.9881578104
 H          5.9600557500        2.0922815113        1.3186245622
 H          7.1552401606        2.8382313015        0.2572914399
 H          5.0740868858        2.9838830636       -0.8544553889
 H          6.0148178677        1.7509149695       -1.7119129871
 O          3.2508619074        1.6791993142       -0.1027021161
 C          2.0701103532        0.9987982518        0.1806311549
 O          1.1828269364        1.7277279458        0.6605220120
 O          3.0729914261       -2.2740319956       -1.0014804754
 C          0.7500644057       -1.1714795109        0.1521273412
 C         -0.4434312515       -0.4539516483       -0.4220692819
 C         -0.6573121227       -0.4839444689       -1.7968039619
 C         -1.7238524324        0.1899731796       -2.3618135034
 C         -2.5971932100        0.9115851881       -1.5676316651
 C         -2.3908669048        0.9489364840       -0.1950271611
 C         -1.3299974831        0.2555985080        0.3725889243
 H         -1.1688115530        0.3082089609        1.4379028585
 N         -3.2701338353        1.6858452769        0.6154959365
 S         -4.9126647578        1.4952626921        0.3796104056
 O         -5.3357804846        2.2581203475       -0.7683534079
 O         -5.5238415393        1.8568510797        1.6392722792
 C         -5.1231020667       -0.2471429200        0.0584855197
 C         -4.8319385262       -1.1327288837        1.0774782966
 C         -4.9392491347       -2.4922985577        0.8354901302
 C         -5.3293148608       -2.9414136033       -0.4172510261
 C         -5.6210405462       -2.0398585837       -1.4287069661
 C         -5.5160817901       -0.6783610004       -1.1918133340
 H         -5.7345137065        0.0560827843       -1.9495690296
 H         -5.9259610172       -2.3919368102       -2.4010129384
 H         -5.4075195948       -4.0007564569       -0.6044553856
 H         -4.7155149369       -3.1959561015        1.6212627973
 H         -4.5383757891       -0.7481486931        2.0410762890
 H         -3.0259764953        1.6841140167        1.5942417032
 H         -3.4228724085        1.4604413550       -1.9907412942
 H         -1.8746337463        0.1596382012       -3.4302347143
 H          0.0321974440       -1.0359418962       -2.4205636205
 H          0.9021233535       -2.0960414096       -0.4281018254
 C          0.5483609616       -1.6004158304        1.5981746923
 C          1.7210176713       -1.9956785368        2.4437511698
 C          0.9471925797       -0.7550109398        2.7690694381
 H          0.3131115489       -0.7639675306        3.6441671831
 H          1.3997004405        0.2041104416        2.5716754463
 H          1.6247935783       -2.8509590450        3.0953764339
 H          2.7047699353       -1.8840910753        2.0112659719
 H         -0.3529938773       -2.1945448476        1.7158005817
