  62
        -98.94341581
 C         -2.5114663646       -1.1478043192        0.0087283165
 C         -3.4451302283       -0.5746537212        0.9141537236
 C         -4.3753263267        0.4114115718        0.3569158123
 C         -4.3302010421        0.6990353110       -0.9561617868
 C         -5.2269253000        1.6622246246       -1.6852903741
 C         -4.7713896089        3.1255235912       -1.6001261229
 C         -4.9702952852        3.7907023643       -0.2375495530
 H         -4.8158559105        4.8622394762       -0.3790428275
 H         -6.0020801803        3.6507961471        0.0862320074
 C         -4.0133857755        3.2944711243        0.8555853402
 H         -3.1701201444        2.7748928594        0.3943510255
 H         -3.6033021848        4.1501587969        1.3965885007
 C         -4.6566833847        2.3709978499        1.8902797915
 H         -3.8818419309        2.0507517312        2.5914421132
 H         -5.4139142590        2.9216414209        2.4526803840
 C         -5.3070370256        1.1142350149        1.2971626142
 H         -6.2354508004        1.3742795903        0.7891586236
 H         -5.5349489305        0.4267192610        2.1152518527
 H         -3.7172978386        3.1802133655       -1.8820124174
 H         -5.3432107850        3.6877770001       -2.3420170420
 H         -5.2202723032        1.3597583229       -2.7347332124
 H         -6.2448934611        1.5741163324       -1.3046671977
 O         -3.4438526565        0.1082760463       -1.7981613022
 C         -2.5009327641       -0.8028914062       -1.3425325709
 O         -1.7419049908       -1.2128932906       -2.2455251403
 O         -3.5011708900       -0.8827778994        2.1339295464
 C         -1.5353479189       -2.1544009494        0.5945261665
 C         -0.1853392995       -1.5307486170        0.8607177017
 C          0.3213903390       -1.4538635957        2.1527525943
 C          1.5646368442       -0.8938597073        2.3894564923
 C          2.3237767926       -0.3939211425        1.3466925835
 C          1.8257191764       -0.4638747939        0.0520126763
 C          0.5834441625       -1.0362448950       -0.1832699649
 H          0.1993200098       -1.0846317805       -1.1916664574
 N          2.5696824610        0.0694508702       -1.0138740290
 S          4.1909846882       -0.3368793777       -1.1516036093
 O          4.5140414802       -0.1444287738       -2.5483841508
 O          4.4596391994       -1.6470336460       -0.6051333887
 C          5.0235769139        0.9079956407       -0.1879313570
 C          5.9171869126        0.5344720001        0.7966821763
 C          6.5611537197        1.5214980384        1.5267616582
 C          6.3022152761        2.8570865683        1.2598732683
 C          5.4038330747        3.2156452664        0.2657075878
 C          4.7578292662        2.2339795934       -0.4685379971
 H          4.0548345199        2.4702314571       -1.2499975405
 H          5.2042945021        4.2552676937        0.0614418919
 H          6.8031196246        3.6235661022        1.8298693401
 H          7.2599939519        1.2449328792        2.2997473192
 H          6.0819595313       -0.5165335162        0.9729935042
 H          2.1009954976       -0.0048397838       -1.9054201085
 H          3.2913449032        0.0458645318        1.5253276754
 H          1.9458351533       -0.8418474557        3.3978468726
 H         -0.2716945938       -1.8275519352        2.9746475938
 H         -1.9679496512       -2.4362816486        1.5639934024
 C         -1.3878597560       -3.4093175126       -0.2440337996
 C         -0.8993970142       -4.6658352226        0.4093048193
 C         -2.3293803141       -4.5536169941       -0.0254204825
 H         -2.6568037681       -5.1213787173       -0.8834107605
 H         -3.0864675976       -4.4387188035        0.7365804000
 H         -0.2395342318       -5.3125492244       -0.1485303162
 H         -0.6871202338       -4.6292889848        1.4670514299
 H         -1.0714895473       -3.2151182517       -1.2607809034
