  62
        -98.94298469
 C          1.8194048802        1.3375496807       -0.0566760996
 C          3.1485459502        1.2075715910        0.4272684903
 C          3.9483492805        0.1209972913       -0.1475254698
 C          3.3993948106       -0.6973052789       -1.0628505098
 C          4.0853267509       -1.8467318887       -1.7500541798
 C          4.0899710614       -3.1491868687       -0.9378493098
 C          5.0332228615       -3.1629440684        0.2657206201
 H          5.1024551518       -4.1979058984        0.6064947901
 H          6.0311345713       -2.8585363882       -0.0517037700
 C          4.5741906813       -2.2870781086        1.4399988001
 H          3.5144355312       -2.0481099689        1.3245681502
 H          4.6758891515       -2.8459905485        2.3729643701
 C          5.3590840610       -0.9857045383        1.6046411301
 H          6.3981166410       -1.2124856380        1.8540540400
 H          4.9272405809       -0.4274504085        2.4392167501
 C          5.3416065506       -0.0773092583        0.3684030901
 H          5.7327732003        0.9014371218        0.6574410500
 H          5.9800702906       -0.4915355882       -0.4119046000
 H          3.0714039414       -3.3570816690       -0.6028029797
 H          4.3883857015       -3.9530195586       -1.6148061898
 H          3.5412355109       -2.0229594589       -2.6805623198
 H          5.1102315208       -1.5669374684       -1.9960930699
 O          2.1206219906       -0.5507326693       -1.4934081097
 C          1.2955339203        0.4593598905       -1.0074757396
 O          0.1582896403        0.4482692902       -1.5121770995
 O          3.6443904501        1.9687578412        1.2994328102
 C          0.9669114699        2.4358638204        0.5573315704
 C         -0.3430159099        1.8543897200        1.0205512106
 C         -0.4001142296        1.1492632500        2.2190307906
 C         -1.5766933694        0.5515163397        2.6315144307
 C         -2.7137469495        0.6224399494        1.8454156708
 C         -2.6583098298        1.3057601594        0.6378003107
 C         -1.4867286100        1.9379608197        0.2435384106
 H         -1.4546465302        2.4590571697       -0.7002847094
 N         -3.7875271999        1.3426033091       -0.1957724792
 S         -4.7335746195       -0.0277800312       -0.3219772891
 O         -5.3281107596        0.0436104286       -1.6394605090
 O         -5.6708713594       -0.0619040115        0.7757757210
 C         -3.6551636691       -1.4491700309       -0.2093816992
 C         -2.4432766091       -1.4555182606       -0.8699738593
 C         -1.6431028588       -2.5841484803       -0.7837058293
 C         -2.0653913184       -3.6845582305       -0.0551088593
 C         -3.2887395384       -3.6644347808        0.5971768808
 C         -4.0902998687       -2.5372801010        0.5221842509
 H         -5.0425176787       -2.4740194213        1.0238100010
 H         -3.6173637181       -4.5199846009        1.1650899808
 H         -1.4369930482       -4.5592576403        0.0059740407
 H         -0.6878335588       -2.5809778201       -1.2851412594
 H         -2.1001964094       -0.5947107605       -1.4213574893
 H         -3.6074642401        1.7439056991       -1.1044824992
 H         -3.6378050493        0.1558660091        2.1473528708
 H         -1.6089787392        0.0159782297        3.5680295907
 H          0.4938371705        1.0687259303        2.8218428705
 H          1.5353881799        2.7553970506        1.4453637604
 C          0.7919322895        3.6730751204       -0.3107634595
 C          1.9413049092        4.2063402307       -1.1113788096
 C          0.7461965494        3.6314063303       -1.8076812895
 H          0.0748999591        4.3098275302       -2.3146246095
 H          0.8441408796        2.6736821004       -2.2938354596
 H          2.0966099789        5.2740498907       -1.1463360497
 H          2.8555683794        3.6308106209       -1.1095999897
 H          0.1559635993        4.4104443602        0.1704598205
