  62
        -98.94530695
 C          2.6338150646        1.1058459362        0.3047250695
 C          2.6235955820        0.3485069957       -0.8919711585
 C          3.2907502533       -0.9601302032       -0.8265492898
 C          3.8575527956       -1.3561189859        0.3275471104
 C          4.5162260024       -2.6864174076        0.5484998177
 C          3.5136642817       -3.7203782388        1.0800868465
 C          2.2112850828       -3.7880064417        0.2814094617
 H          1.6632719250       -2.8494480974        0.4006823233
 H          1.5944505530       -4.5717525915        0.7272893542
 C          2.3977688917       -4.0744006426       -1.2151514819
 H          1.6665551755       -4.8261923566       -1.5195033968
 H          3.3891915382       -4.4937427130       -1.3913053625
 C          2.1905465002       -2.8609159842       -2.1236900433
 H          1.2352812406       -2.3838275846       -1.8850962768
 H          2.1262913229       -3.2169967671       -3.1554557119
 C          3.2934787728       -1.7954348765       -2.0754075566
 H          3.1169878210       -1.0997622352       -2.9009023401
 H          4.2669460852       -2.2673354368       -2.2234108394
 H          3.2675288305       -3.4661878865        2.1137767557
 H          3.9933793007       -4.7006844900        1.0765195054
 H          4.9478640152       -3.0319560428       -0.3885960512
 H          5.3142366399       -2.5579367049        1.2816375366
 O          3.8481181807       -0.5998153855        1.4554801539
 C          3.2191747314        0.6350740036        1.4789734027
 O          3.2451863174        1.2047674573        2.5896479329
 H          0.3174593228        0.7261047105        1.5379065449
 C         -0.2156698965        1.2792015787        0.7727353956
 C          0.4662287435        2.2477110946        0.0453677417
 C         -0.2264941451        2.9510910281       -0.9298846382
 C         -1.5598050624        2.6718165675       -1.1787908210
 C         -2.2303252388        1.6992631765       -0.4604409781
 C         -1.5490984052        0.9970160993        0.5257759961
 N         -2.2245945238        0.0129007585        1.2737022033
 S         -2.9706809609       -1.2248841913        0.4131477768
 O         -3.0410084156       -2.3363184037        1.3373372767
 O         -2.3052446732       -1.4760592504       -0.8441032570
 C         -4.6132602775       -0.5998561908        0.1295588468
 C         -5.1132017356       -0.5294502203       -1.1557884488
 C         -6.3961942640       -0.0406754975       -1.3491082245
 C         -7.1512367424        0.3663041482       -0.2598019719
 C         -6.6347190724        0.2870314680        1.0251523172
 C         -5.3538498318       -0.2020458970        1.2255796859
 H         -4.9151546703       -0.2825999414        2.2061199421
 H         -7.2245514870        0.6053395643        1.8695595410
 H         -8.1482204251        0.7481172706       -0.4132370578
 H         -6.7992052685        0.0220142986       -2.3471736550
 H         -4.4856862961       -0.8499771060       -1.9721992653
 H         -1.6615501006       -0.3776588789        2.0161750002
 H         -3.2658299266        1.4748529554       -0.6578493798
 H         -2.0836296905        3.2185521271       -1.9479094414
 H          0.2804752386        3.7069415212       -1.5063683968
 C          1.9302092001        2.4515850248        0.3541391706
 H          2.0145535377        2.8010340117        1.3935269172
 C          2.6160721114        3.4494822805       -0.5537468418
 C          2.5157098172        4.9167490075       -0.2667174103
 C          3.8086744916        4.1949317914       -0.0377422642
 H          4.6317605682        4.3801014571       -0.7113465388
 H          4.1143805862        3.9977588459        0.9797366093
 H          1.9446652110        5.2186396572        0.5981484730
 H          2.4537664212        5.6020165127       -1.0984367325
 H          2.6365499671        3.1271194540       -1.5881380253
 O          2.0870158458        0.7416194022       -1.9598013700
