  62
        -98.93887129
 C         -2.3466821504       -0.7355722992        0.5955842056
 C         -3.4195257526       -0.9878966363       -0.2947164129
 C         -4.6919378028       -0.3207222037        0.0235304309
 C         -4.7741752186        0.4779157515        1.1019941811
 C         -5.9903772365        1.2593914588        1.5047110978
 C         -5.9840471207        2.6620871042        0.8809467704
 C         -5.7017531713        2.6692364640       -0.6214378429
 H         -5.7522718249        3.7075125711       -0.9565081701
 H         -4.6788016109        2.3260467092       -0.7930879542
 C         -6.6690698609        1.8155354479       -1.4532029628
 H         -7.5707856754        1.6086016030       -0.8757781863
 H         -6.9716007294        2.3865596941       -2.3334733379
 C         -6.0775732881        0.4983014446       -1.9580950914
 H         -5.1243891510        0.6919193287       -2.4563150541
 H         -6.7594696202        0.0836164599       -2.7052573803
 C         -5.8538715191       -0.5830911302       -0.8936255280
 H         -6.7706693862       -0.7296942203       -0.3192871348
 H         -5.6201224952       -1.5166892233       -1.4133113446
 H         -6.9514619471        3.1293490059        1.0738714873
 H         -5.2137143578        3.2574670933        1.3765628835
 H         -6.8820130718        0.7170561015        1.1961150994
 H         -5.9918887994        1.3548060362        2.5918277053
 O         -3.7246528828        0.7004219709        1.9339902292
 C         -2.4981191334        0.1047072889        1.7039466441
 O         -1.6286399357        0.3911299293        2.5528480404
 H          1.4435349875       -0.2157307470        0.8559197952
 C          1.1271555898       -0.1320684146       -0.1739938850
 C         -0.1077897341       -0.6277834652       -0.5649119210
 C         -0.4969733584       -0.4853410162       -1.8926998283
 C          0.3389921362        0.1357150775       -2.8025023768
 C          1.5841073890        0.6001665379       -2.4165116836
 C          1.9799463892        0.4657993079       -1.0911253570
 N          3.2316907560        0.9322951686       -0.6594822495
 S          4.0406573823        0.0357944401        0.5220895188
 O          3.8708457741       -1.3773811599        0.2717661595
 O          3.6337635530        0.5069311042        1.8225007645
 C          5.7289787576        0.5163484028        0.2073778382
 C          6.2132557275        1.6785209541        0.7774383353
 C          7.5176408687        2.0624593731        0.5090873971
 C          8.3110458515        1.2832614845       -0.3199309711
 C          7.8116649385        0.1185328145       -0.8833025496
 C          6.5077974095       -0.2707428055       -0.6201577188
 H          6.0802146513       -1.1731078023       -1.0268453794
 H          8.4319510879       -0.4871959292       -1.5240814299
 H          9.3261575428        1.5840343285       -0.5255295754
 H          7.9105015387        2.9653809185        0.9479348668
 H          5.5629559540        2.2457008601        1.4230483616
 H          3.8408452178        1.1958021194       -1.4218189049
 H          2.2427130622        1.0670975471       -3.1332205590
 H          0.0245691330        0.2434065102       -3.8297417429
 H         -1.4562717654       -0.8704026173       -2.2021102601
 C         -0.9666419856       -1.3534211929        0.4435483363
 H         -0.4821763177       -1.2386724059        1.4235799518
 C         -1.0006857754       -2.8327763005        0.1017747924
 C          0.2479526360       -3.6404510836        0.2833360593
 C         -0.9192865791       -3.8458858645        1.2010413723
 H         -1.4947509196       -4.7547666498        1.1083135565
 H         -0.8411859776       -3.4791658018        2.2146630741
 H          0.4718683972       -4.4085565570       -0.4411883564
 H          1.1234586473       -3.1350923772        0.6663063258
 H         -1.6304741149       -3.0617754327       -0.7476109628
 O         -3.3474822734       -1.7286350523       -1.3111971319
