  62
        -98.93807199
 C         -2.1814034906       -0.9224582100       -0.0109124433
 C         -2.9104316562       -0.1816427900        0.9448351990
 C         -3.7569885063        0.9160396010        0.4375569489
 C         -3.7626288777        1.1687133167       -0.8849410034
 C         -4.5668027699        2.1988653729       -1.6326037754
 C         -6.0410419039        1.7947156407       -1.7964073432
 C         -6.6922095920        1.2139839917       -0.5439336127
 H         -7.6918936110        0.8681826761       -0.8196341056
 H         -6.1260696546        0.3395377448       -0.2178874354
 C         -6.8410959633        2.1868912250        0.6233174753
 H         -7.3952834127        1.6679218940        1.4096084771
 H         -7.4413493178        3.0415518962        0.3034259022
 C         -5.5369543725        2.7097175793        1.2291722034
 H         -5.0978886897        3.4850813746        0.6070942956
 H         -5.7877429214        3.1832073762        2.1830304949
 C         -4.5014785239        1.6329458312        1.5384226284
 H         -3.7272471917        2.0689026577        2.1821547764
 H         -4.9694923940        0.8494938498        2.1455268593
 H         -6.0973604069        1.0370556812       -2.5816726793
 H         -6.6028624076        2.6687948663       -2.1298558155
 H         -4.4815370349        3.1656114875       -1.1451915968
 H         -4.1182489939        2.2858118157       -2.6246611085
 O         -3.0164369133        0.4451504002       -1.7681699383
 C         -2.2145589009       -0.6082695693       -1.3690700696
 O         -1.5945797436       -1.1663658954       -2.2930580602
 H          0.0312819062        0.2068098769        0.7434701468
 C          0.6693762309       -0.5663380151        0.3314385659
 C          0.1354592217       -1.8279216445        0.0973351384
 C          0.9711258971       -2.8122745885       -0.4136179707
 C          2.2959445644       -2.5295165364       -0.6987581306
 C          2.8164189511       -1.2676581953       -0.4811563156
 C          1.9934970657       -0.2779684687        0.0408757572
 N          2.5129007831        1.0123075273        0.2575144093
 S          3.8901462945        1.1432784295        1.2118184647
 O          3.9522155753        0.0871104644        2.1959728628
 O          3.8686564595        2.4965357922        1.7233567731
 C          5.2335092916        0.9792240321        0.0554554318
 C          6.2081462630        0.0233993262        0.2655882687
 C          7.2502664134       -0.0813584827       -0.6425818601
 C          7.2990404206        0.7673548920       -1.7378492237
 C          6.3134012492        1.7236728173       -1.9328932177
 C          5.2697181249        1.8348783718       -1.0281512040
 H          4.4854636437        2.5646035518       -1.1422506013
 H          6.3541331437        2.3811869534       -2.7863329537
 H          8.1094754031        0.6829874157       -2.4444708301
 H          8.0173647076       -0.8239601704       -0.4927343386
 H          6.1238056616       -0.6189781783        1.1274588995
 H          1.8172204449        1.6801912708        0.5573824927
 H          3.8448667908       -1.0420370899       -0.7106540038
 H          2.9313723651       -3.3033897008       -1.1013050477
 H          0.5844510708       -3.8019811166       -0.5921967782
 C         -1.3107637752       -2.0746402624        0.4523061845
 H         -1.3916810487       -2.0791162376        1.5503599571
 C         -1.8490648625       -3.3864140154       -0.0803409777
 C         -1.6675195640       -4.6534867338        0.6992539525
 C         -3.0210904493       -4.0177356390        0.6074316821
 H         -3.7782869331       -4.4950940900        0.0037782652
 H         -3.4119222751       -3.5153752172        1.4805131738
 H         -1.4976043365       -5.5720424159        0.1581187883
 H         -1.1419524997       -4.5909087506        1.6402536063
 H         -1.8160124609       -3.4385353696       -1.1628114738
 O         -2.8617442641       -0.4227129582        2.1832318210
