  62
        -98.94688266
 C          1.2409552653        1.2173519892        0.0861034345
 C          1.9991263182        0.6976920010        1.1609977045
 C          2.6746480385       -0.5823653771        0.9104048794
 C          2.5095293940       -1.1901198546       -0.2790705303
 C          3.1919252066       -2.4622140485       -0.6895617102
 C          4.5278565442       -2.1730854180       -1.3889011402
 C          5.4278293130       -1.2003891913       -0.6269340376
 H          4.9534311924       -0.2166480706       -0.6052628528
 H          6.3532745157       -1.0978063417       -1.1977578871
 C          5.7588325546       -1.6332793294        0.8081608576
 H          6.8258981739       -1.4805887830        0.9833869073
 H          5.5609961800       -2.6989237711        0.9297086820
 C          5.0141958155       -0.8528414902        1.8929438206
 H          5.1376617854        0.2197766020        1.7226324770
 H          5.4752090867       -1.0853314656        2.8567537868
 C          3.5147946860       -1.1512670589        2.0191788067
 H          3.1594267352       -0.6771891884        2.9390766030
 H          3.3606876405       -2.2286731066        2.1079730960
 H          4.3189088791       -1.7455738111       -2.3720801826
 H          5.0533124104       -3.1187366852       -1.5340745618
 H          3.3585156054       -3.0809301167        0.1900294959
 H          2.5409758433       -2.9966559126       -1.3823928217
 O          1.7356280777       -0.6826613607       -1.2701912618
 C          1.0786977024        0.5287135784       -1.1171440240
 O          0.3988124009        0.8733138100       -2.0993855783
 H         -0.8877819835        0.7507428949        1.6126309116
 C         -1.5269590147        1.3046485663        0.9356570024
 C         -0.9692976318        2.3072025287        0.1503484015
 C         -1.8009351617        3.0127678451       -0.7077454227
 C         -3.1491056101        2.7051465612       -0.7885420896
 C         -3.6970372314        1.6988485282       -0.0148103372
 C         -2.8747412972        0.9967260815        0.8573674257
 N         -3.4208917963       -0.0391990865        1.6488057277
 S         -3.9992942651       -1.3660227588        0.8038374440
 O         -5.1742061842       -0.9727659046        0.0695120983
 O         -4.1814082634       -2.4031481412        1.7941194783
 C         -2.6917529905       -1.8139657053       -0.3224225352
 C         -1.7157459639       -2.6879486348        0.1127252743
 C         -0.6786250503       -3.0146818718       -0.7452105022
 C         -0.6307404864       -2.4559775275       -2.0130308303
 C         -1.6103858792       -1.5689052664       -2.4297647694
 C         -2.6525984830       -1.2418987935       -1.5778725095
 H         -3.4345770976       -0.5597850306       -1.8689599206
 H         -1.5557764905       -1.1204041918       -3.4080488916
 H          0.1792782817       -2.7024035623       -2.6811375304
 H          0.0895826525       -3.6986774762       -0.4204534768
 H         -1.7939305233       -3.1080125031        1.1030991140
 H         -2.7835627204       -0.3607598327        2.3644984897
 H         -4.7398054411        1.4338019984       -0.0808912159
 H         -3.7818994311        3.2565881419       -1.4672705095
 H         -1.3934130627        3.7968238841       -1.3240860373
 C          0.5164401150        2.5399430703        0.2658307845
 H          0.7348689625        2.8574874165        1.2961993290
 C          1.0509906097        3.5837611670       -0.6906406108
 C          0.9503989606        5.0391123937       -0.3472213880
 C          2.2810885317        4.3511317082       -0.3126360270
 H          3.0028656663        4.5812294413       -1.0819644410
 H          2.7233790370        4.1386523407        0.6499257220
 H          0.4903141989        5.3000110355        0.5938544312
 H          0.7604617750        5.7453427225       -1.1412145723
 H          0.9434067147        3.2926183294       -1.7291910020
 O          2.0997680344        1.2730751232        2.2795853632
