  62
        -98.94433472
 C         -1.9507880893       -1.2542382294        0.4376624908
 C         -2.7747627792       -0.9500054698       -0.6733473294
 C         -4.0141717392       -0.2183152596       -0.3689017997
 C         -4.2769301891        0.1405106710        0.9006110601
 C         -5.4757353791        0.9292383913        1.3399662698
 C         -5.1870707489        2.4368631313        1.3292501391
 C         -4.5505452689        2.9352351506        0.0316747589
 H         -4.4220023688        4.0157657707        0.1264396884
 H         -3.5522482989        2.5019000105       -0.0669863409
 C         -5.3630986989        2.6259743301       -1.2334552810
 H         -6.3931925989        2.3900339204       -0.9637143509
 H         -5.3888032788        3.5201670999       -1.8597852514
 C         -4.7923703090        1.4963522697       -2.0928140705
 H         -3.7327390790        1.6823071295       -2.2864944206
 H         -5.3079552790        1.5095049793       -3.0567546205
 C         -4.9362135892        0.0820378100       -1.5170025498
 H         -5.9755013892       -0.0954601898       -1.2329618797
 H         -4.6692049992       -0.6251408504       -2.3076982695
 H         -6.1240157589        2.9687485515        1.5042128389
 H         -4.5076711889        2.6660238416        2.1536269090
 H         -6.3121516791        0.7047005111        0.6809824699
 H         -5.7336763891        0.6254414518        2.3559760999
 O         -3.4422357591       -0.1363372186        1.9352548003
 C         -2.2599815892       -0.8262822788        1.7292560206
 O         -1.5756384692       -0.9916943284        2.7608967606
 H          0.4038314309        0.2234675907        1.1530947001
 C          0.7722136309        0.0069248102        0.1576976202
 C          0.3314062907       -1.1444683100       -0.4855144493
 C          0.8118198807       -1.4202409207       -1.7576887392
 C          1.6943189108       -0.5493359110       -2.3755573096
 C          2.1251527909        0.5981636092       -1.7367495501
 C          1.6612977909        0.8746458898       -0.4557691102
 N          2.1240389410        2.0219281601        0.2143934892
 S          3.7822324411        2.2682477500        0.2224063791
 O          4.0554203811        2.9992476805        1.4399107888
 O          4.1782378811        2.9177560194       -1.0022326412
 C          4.4913245009        0.6322353399        0.2950606499
 C          5.2605695009        0.1654187794       -0.7510623899
 C          5.7594771907       -1.1260481906       -0.6916623194
 C          5.4777654907       -1.9254344801        0.4049739210
 C          4.7076696707       -1.4399410596        1.4509376808
 C          4.2076212208       -0.1492571296        1.3977010802
 H          3.6081660309        0.2583685709        2.1963673300
 H          4.4900325207       -2.0621000692        2.3043394711
 H          5.8603731906       -2.9329374001        0.4473229415
 H          6.3607826607       -1.5055830111       -1.5018607592
 H          5.4519611009        0.8192152990       -1.5861372802
 H          1.7383400711        2.1328912506        1.1407083392
 H          2.8075839910        1.2879415289       -2.2063907304
 H          2.0515736908       -0.7685916515       -3.3699486995
 H          0.4848404806       -2.3081860609       -2.2718759788
 C         -0.6500735093       -2.0204477596        0.2549723511
 H         -0.2541871293       -2.1788193392        1.2680761312
 C         -0.8837739595       -3.3690276599       -0.3896909683
 C          0.1501194804       -4.4435625499       -0.2435009878
 C         -1.1545823196       -4.5545560395        0.4850719022
 H         -1.8736226596       -5.2873120096        0.1507263426
 H         -1.1611095395       -4.3954801190        1.5538303022
 H          0.3287500604       -5.1047627603       -1.0774969775
 H          1.0332114605       -4.2097146297        0.3314847621
 H         -1.4290507595       -3.3054292103       -1.3230294383
 O         -2.5023715493       -1.2738785404       -1.8576732492
