  62
        -98.94045078
 C         -1.9365254495       -1.4829475633        0.4492058113
 C         -2.3134286611       -0.8975632717       -0.7844752556
 C         -3.1749640957        0.2936269132       -0.6937772214
 C         -3.5346733121        0.7659031264        0.5128126686
 C         -4.3455113579        2.0073215068        0.7449919108
 C         -3.4420927302        3.2398298750        0.8936662993
 C         -2.3903409013        3.3679074785       -0.2083923808
 H         -1.8215947445        4.2803983493       -0.0166596117
 H         -1.6926368689        2.5306333751       -0.1350132592
 C         -2.9656275394        3.4126802795       -1.6307343469
 H         -4.0283517016        3.6548999866       -1.5951520518
 H         -2.4693579850        4.2116610040       -2.1857692144
 C         -2.7674216731        2.1242653669       -2.4313659082
 H         -1.7135181341        1.8343165650       -2.4028093692
 H         -3.0179051383        2.3304965633       -3.4755071761
 C         -3.6136059573        0.9243223421       -1.9862991504
 H         -4.6641717885        1.2170785671       -1.9336432004
 H         -3.5117664789        0.1472442369       -2.7497728317
 H         -4.0715804869        4.1312421162        0.9032942163
 H         -2.9284144928        3.1776120248        1.8558013087
 H         -5.0342116983        2.1467427138       -0.0859870443
 H         -4.9204192383        1.8756709191        1.6630544234
 O         -3.1477568851        0.1837798593        1.6755224465
 C         -2.3494592263       -0.9467106660        1.6735603579
 O         -2.0789004648       -1.3813233197        2.8096906113
 H          0.2061411808       -1.2830541393       -1.3421058955
 C          0.8788127518       -1.5660742926       -0.5456979903
 C          0.3972162552       -2.3318985018        0.5077754962
 C          1.2730963279       -2.6879943229        1.5257337839
 C          2.5999142615       -2.2934849739        1.4836978504
 C          3.0771403539       -1.5331395266        0.4313404719
 C          2.2058050030       -1.1662140474       -0.5869286881
 N          2.6713659130       -0.3697944178       -1.6485677679
 S          3.5625008665        0.9863184785       -1.2412437566
 O          3.3051875186        1.9473280188       -2.2902641775
 O          4.9434362640        0.6144920258       -1.0576828837
 C          2.8899262060        1.5543599674        0.3125179635
 C          3.7192073491        1.6782315276        1.4084240962
 C          3.1818300316        2.1026780640        2.6130330820
 C          1.8286812065        2.3885794516        2.7017200262
 C          1.0082445498        2.2607755319        1.5913837647
 C          1.5409866169        1.8415749909        0.3835545363
 H          0.9246085735        1.7358775209       -0.4959661799
 H         -0.0457502649        2.4783127964        1.6652096805
 H          1.4061842281        2.7115371404        3.6400007407
 H          3.8168484337        2.2042759562        3.4781806112
 H          4.7639270018        1.4380859158        1.2958924349
 H          1.9570888897       -0.1476985651       -2.3269385681
 H          4.1067115473       -1.2172286796        0.3811396536
 H          3.2693325554       -2.5780311645        2.2807698504
 H          0.9041661282       -3.2648383380        2.3609269924
 C         -1.0578475517       -2.7214122212        0.5524139395
 H         -1.2606041651       -3.1316126707        1.5536404490
 C         -1.4279644610       -3.7973531785       -0.4606694009
 C         -0.5269166799       -4.2488899750       -1.5672456592
 C         -0.7663782128       -5.1420433221       -0.3896884439
 H         -1.3713503657       -6.0264850561       -0.5197344993
 H          0.0409608812       -5.2582183622        0.3178664324
 H         -0.9853298307       -4.4977059174       -2.5124286793
 H          0.4424871153       -3.7861955663       -1.6656468874
 H         -2.4899131953       -3.7926317386       -0.6842646817
 O         -1.9579513155       -1.3233375296       -1.9147780487
