  62
        -98.94317720
 C         -2.6408952100       -0.0261552008       -0.1633475878
 C         -2.1614626285       -0.8195497270        0.9087035344
 C         -1.8584569543       -2.2210572759        0.5804651635
 C         -2.0083049889       -2.6701948336       -0.6774626873
 C         -1.7738598769       -4.0776909780       -1.1566439150
 C         -0.3080955111       -4.3980952557       -1.4769838714
 C          0.6003936446       -4.5651078266       -0.2586708461
 H          0.1433422230       -5.2632580733        0.4436221384
 H          1.5303426411       -5.0159620427       -0.6106219424
 C          0.9350079820       -3.2522642845        0.4622844392
 H          2.0038107766       -3.2192827048        0.6905243466
 H          0.7355159780       -2.4031100513       -0.1961516076
 C          0.1948072888       -3.0330493176        1.7818096910
 H          0.5222063307       -3.7752146730        2.5146196423
 H          0.4726779571       -2.0430757948        2.1537420007
 C         -1.3341202603       -3.0979822958        1.6776878130
 H         -1.6559906341       -4.1286360824        1.5241334565
 H         -1.7539143821       -2.7350987396        2.6195733054
 H          0.0897407058       -3.6077965254       -2.1179619074
 H         -0.2953528715       -5.3308772634       -2.0458501998
 H         -2.1473277967       -4.7828889627       -0.4132094068
 H         -2.3598426743       -4.1925513041       -2.0712269616
 O         -2.4412733903       -1.8698685858       -1.6880381784
 C         -2.7447120849       -0.5402263906       -1.4588345870
 O         -3.1170013809        0.0787052859       -2.4780531460
 H         -0.4204450684        1.0742255757        0.7680914610
 C         -0.5289487648        1.9423964508        0.1361809704
 C         -1.7762280700        2.2990370857       -0.3521735433
 C         -1.8819189623        3.4365314374       -1.1444361251
 C         -0.7604100104        4.1839721630       -1.4557104044
 C          0.4897868407        3.7946450663       -1.0099822178
 C          0.6040128223        2.6628465117       -0.2110756665
 N          1.8536199408        2.2211652522        0.2535832357
 S          2.0873039246        0.5435354012        0.3029128874
 O          1.4367812359       -0.0756346611       -0.8294607643
 O          1.7238473171        0.0699890724        1.6129795462
 C          3.8596370443        0.4554872041        0.1187962979
 C          4.6541175372        0.6886015371        1.2257721919
 C          6.0318527072        0.6560160778        1.0803372757
 C          6.5894728099        0.3922809375       -0.1621376641
 C          5.7796349370        0.1570110866       -1.2629940141
 C          4.4006753135        0.1900492522       -1.1246221546
 H          3.7303592637        0.0060533089       -1.9490758348
 H          6.2151349167       -0.0519313273       -2.2268177477
 H          7.6619900519        0.3668837476       -0.2726910362
 H          6.6643961997        0.8349271170        1.9347238231
 H          4.1743266550        0.8783643885        2.1718002142
 H          2.6288483892        2.6975203700       -0.1875130114
 H          1.3707270302        4.3570708066       -1.2799097617
 H         -0.8561954387        5.0640287781       -2.0732685518
 H         -2.8477024535        3.7201690179       -1.5351422358
 C         -2.9881978550        1.4495500637       -0.0449468280
 H         -3.7335235823        1.6469664115       -0.8293817711
 C         -3.5848255288        1.8490915132        1.2899160811
 C         -4.5108345603        3.0249414658        1.3563176725
 C         -5.0470603403        1.6370280806        1.5354893156
 H         -5.3607579765        1.3216464928        2.5189164126
 H         -5.6289536862        1.2069008440        0.7330475274
 H         -4.4571237448        3.6707841146        2.2190370839
 H         -4.7399804595        3.5384411365        0.4350662493
 H         -2.9130450371        1.6872162377        2.1225555335
 O         -2.0024552813       -0.4134443007        2.0906056680
