  62
        -98.94624066
 C         -1.7720026462       -1.3152601368       -0.0706519432
 C         -2.8001679227       -0.7115460815        0.6892562763
 C         -3.3350854205        0.5498000765        0.1576101708
 C         -2.8304331589        1.0481663898       -0.9861885040
 C         -3.2242691871        2.3634314980       -1.5936428261
 C         -2.3308150563        3.5032183579       -1.0821906277
 C         -2.1641195394        3.5228332107        0.4371256281
 H         -1.6326894321        2.6205263930        0.7507100731
 H         -1.5244845192        4.3730400057        0.6855047378
 C         -3.4828699994        3.6284175238        1.2162338702
 H         -3.3643199277        4.3718839191        2.0073839509
 H         -4.2749861340        3.9824060015        0.5554598923
 C         -3.9291423025        2.3286190636        1.8883021203
 H         -4.7482507310        2.5640175882        2.5730329816
 H         -3.1092867829        1.9257850496        2.4892054860
 C         -4.4233153620        1.2252844376        0.9438505148
 H         -4.8791411518        0.4436727417        1.5588854879
 H         -5.1887634174        1.6277593705        0.2774985608
 H         -2.7566476377        4.4520295210       -1.4131466615
 H         -1.3400405276        3.4035009025       -1.5311936174
 H         -4.2652088978        2.5712398070       -1.3538597968
 H         -3.1199263284        2.2889085878       -2.6772539967
 O         -1.8546702420        0.4298865870       -1.6979453838
 C         -1.2906191761       -0.7603508213       -1.2575583734
 O         -0.3943651265       -1.2084529871       -1.9924967581
 O         -3.2392347408       -1.1941065864        1.7689941089
 C         -1.1145297494       -2.5833290855        0.4437694299
 C          0.3626092040       -2.3336163525        0.6285877692
 C          1.3530420074       -3.1965039498        0.1800610789
 C          2.6905281686       -2.8749500666        0.3416133003
 C          3.0696468949       -1.6927988775        0.9495236275
 C          2.0858553722       -0.8290299886        1.4141113614
 C          0.7494554874       -1.1574061170        1.2600625676
 H         -0.0130623056       -0.4775582851        1.6211861274
 N          2.4576964735        0.3897208871        2.0168605069
 S          3.4695488506        1.3750654536        1.1114913687
 O          4.8281619032        0.9162140537        1.2579670597
 O          3.2041485535        2.7191095490        1.5750752841
 C          2.9402287313        1.1746178090       -0.5790136809
 C          3.7483230679        0.5046766599       -1.4737959593
 C          3.3013136103        0.3229574644       -2.7724915158
 C          2.0606932592        0.8100192948       -3.1501838331
 C          1.2617544054        1.4838080735       -2.2401837836
 C          1.7009326739        1.6652499916       -0.9399628478
 H          1.1023447724        2.1846836049       -0.2068550643
 H          0.2899377023        1.8442347328       -2.5373290309
 H          1.7050555309        0.6586758000       -4.1567686903
 H          3.9176896905       -0.2035779747       -3.4832496893
 H          4.7063022379        0.1425810069       -1.1381123672
 H          1.6688598419        0.9236219330        2.3527199885
 H          4.1054736570       -1.4194223008        1.0692448973
 H          3.4489321813       -3.5523870289       -0.0196401938
 H          1.0791560908       -4.1169587912       -0.3083419320
 H         -1.5626915259       -2.7706036517        1.4310150151
 C         -1.4243396031       -3.7556376950       -0.4622924181
 C         -1.4735262374       -5.1471727496        0.0923175722
 C         -2.7400944056       -4.4565760128       -0.3126692838
 H         -3.2507781954       -4.7912671943       -1.2030660152
 H         -3.4038494348       -4.1044019437        0.4635954993
 H         -1.1166514326       -5.9604046154       -0.5214424308
 H         -1.2807504117       -5.2730509314        1.1470358741
 H         -1.0429912928       -3.6155355011       -1.4673110977
