  62
        -98.93916121
 C         -2.4747015093       -1.0515772900        0.3567215101
 C         -2.5872615696        0.1512274204        1.1037201993
 C         -3.8339997798        0.9063454500        0.9447760188
 C         -4.8049655197        0.4251214892        0.1477599292
 C         -6.1548959799        1.0480540987       -0.0842574112
 C         -6.1652785002        2.1430102280       -1.1593925219
 C         -5.4968534805        3.4570836185       -0.7539753728
 H         -5.7640421108        4.1993496379       -1.5086333232
 H         -5.9098242306        3.7957429390        0.1966382370
 C         -3.9665548505        3.3834980689       -0.6550641128
 H         -3.5257831908        4.2457317687       -1.1605197433
 H         -3.6086188303        2.4919062687       -1.1754351822
 C         -3.4223788005        3.3710920700        0.7737439372
 H         -3.6567308207        4.3187227003        1.2640113066
 H         -2.3338490804        3.2773697903        0.7255088272
 C         -3.9576429701        2.2262437204        1.6438851980
 H         -3.3559978501        2.1775204912        2.5549388280
 H         -4.9952303402        2.4158540003        1.9186513279
 H         -7.2099340903        2.3509558176       -1.4016684120
 H         -5.6856532401        1.7531473376       -2.0599847217
 H         -6.5346514200        1.4541566192        0.8537242186
 H         -6.8161104297        0.2414744983       -0.4079941706
 O         -4.6688587394       -0.7373268412       -0.5388381901
 C         -3.5034741792       -1.4900958908       -0.4780873196
 O         -3.5379017390       -2.5035637313       -1.2031100090
 O         -1.6880201397        0.5668328912        1.8848346090
 C         -1.1867964991       -1.8369892496        0.5298400005
 C         -0.1930908492       -1.5727942300       -0.5769843597
 C         -0.5043842892       -1.8161905910       -1.9104679395
 C          0.4338179107       -1.5819492114       -2.8989973697
 C          1.6947718306       -1.1110005308       -2.5796720900
 C          2.0215419306       -0.8781280499       -1.2481335902
 C          1.0744505107       -1.1054303295       -0.2593053700
 H          1.3300858107       -0.8994346387        0.7690957798
 N          3.3182170105       -0.4617046893       -0.9038656505
 S          3.5885807103        0.4944101317        0.4579721089
 O          3.4273956805       -0.3171962676        1.6377547194
 O          2.7982159500        1.7035770714        0.3890763681
 C          5.3163676502        0.8651467120        0.2212002486
 C          6.2432628605       -0.1152668676        0.5220840992
 C          7.5878017604        0.1474771626        0.3149853789
 C          7.9815466000        1.3793879724       -0.1867009919
 C          7.0404355398        2.3542338620       -0.4812675325
 C          5.6934023398        2.0971731217       -0.2779110923
 H          4.9271143096        2.8267530314       -0.4855881227
 H          7.3498475095        3.3119260818       -0.8677369731
 H          9.0288103900        1.5818474526       -0.3464485420
 H          8.3225142906       -0.6070600070        0.5452968794
 H          5.8906879107       -1.0533457774        0.9177823998
 H          3.8405229804       -0.1173453997       -1.6981847208
 H          2.4243930605       -0.9305220811       -3.3544516002
 H          0.1789744407       -1.7668819121       -3.9317493496
 H         -1.4872384391       -2.1836989914       -2.1622209292
 H         -0.7447518492       -1.4555194688        1.4613458103
 C         -1.4015973187       -3.3311797995        0.6825560615
 C         -0.3409707684       -4.1474667688        1.3553641720
 C         -1.6490835185       -3.9021029387        2.0447209919
 H         -2.3461167983       -4.7209644288        2.1401826224
 H         -1.6650606086       -3.2151357082        2.8786885514
 H         -0.1365679782       -5.1374439390        0.9778171726
 H          0.5315294814       -3.6268457883        1.7220860916
 H         -1.9318055686       -3.7758001702       -0.1493367382
