  62
        -98.93995599
 C         -1.7890150772       -1.6275123386       -0.0083655411
 C         -1.6183826201       -0.4914948943       -0.8302197669
 C         -2.7413652044        0.4667585235       -0.8836033662
 C         -3.8437027128        0.2149066642       -0.1536711116
 C         -5.0582506800        1.0881394575        0.0021947331
 C         -4.8073161970        2.2744019341        0.9529935359
 C         -3.4358797976        2.9353395623        0.8233938570
 H         -3.3265771252        3.6382454820        1.6534800073
 H         -2.6611219254        2.1746191774        0.9403796325
 C         -3.2054060768        3.7074168560       -0.4738722255
 H         -2.1996414949        4.1336926488       -0.4335019164
 H         -3.9139193614        4.5376705118       -0.5230784025
 C         -3.3335661082        2.8974490616       -1.7637142199
 H         -2.9840545944        3.5320504541       -2.5836941250
 H         -4.3764710423        2.6728714802       -1.9707077409
 C         -2.4921757430        1.6245284388       -1.8202464031
 H         -2.5645144266        1.2116642472       -2.8346070325
 H         -1.4363384252        1.8877181236       -1.6921299589
 H         -4.8976515999        1.9053012420        1.9772832695
 H         -5.5890431913        3.0184006888        0.7929114016
 H         -5.8469843997        0.4632564941        0.4262708277
 H         -5.3945059362        1.4291621531       -0.9726557356
 O         -3.9663411734       -0.8969628232        0.6248188893
 C         -2.9617227151       -1.8378864957        0.7191610685
 O         -3.2220804046       -2.7999524626        1.4695074512
 O         -0.5714626620       -0.2648599387       -1.4931471211
 C         -0.6813958996       -2.6581955664        0.1431047233
 C          0.4571059990       -2.0330658018        0.9140904302
 C          0.2563563344       -1.7499144858        2.2640900167
 C          1.2529559205       -1.1681491245        3.0220844567
 C          2.4691843087       -0.8449901969        2.4447593002
 C          2.6778872968       -1.1158081790        1.0987169698
 C          1.6774959369       -1.7128891388        0.3403711862
 H          1.8651695050       -1.8996749380       -0.7035323295
 N          3.9106537549       -0.8052518017        0.4906644406
 S          3.9145409742        0.2426240814       -0.8192927942
 O          3.2605401669       -0.3715139999       -1.9430666218
 O          5.3089530663        0.5867000584       -1.0030434297
 C          3.0233352399        1.6684750123       -0.2240457271
 C          1.6442374277        1.6849064171       -0.2719196985
 C          0.9744845368        2.7573089336        0.2982456343
 C          1.6844436567        3.7858724705        0.8970249604
 C          3.0706031980        3.7554831764        0.9296101516
 C          3.7475146038        2.6837499326        0.3716496657
 H          4.8237026699        2.6176512322        0.3733717781
 H          3.6222357980        4.5585294276        1.3913756988
 H          1.1535087548        4.6143778413        1.3389479491
 H         -0.1043074562        2.7752664528        0.2734352513
 H          1.1111869365        0.8782584984       -0.7523458695
 H          4.6165598571       -0.5055648378        1.1495407936
 H          3.2521108456       -0.3897928344        3.0324224863
 H          1.0833756329       -0.9615476005        4.0678440176
 H         -0.6982337918       -1.9982337421        2.7079971897
 H         -1.1052103460       -3.4583150275        0.7665609428
 C         -0.2731803265       -3.2504291471       -1.1878318073
 C          0.4371352749       -4.5691142558       -1.2164820644
 C         -0.9817902969       -4.4712881652       -1.6888261721
 H         -1.1813389012       -4.5534838175       -2.7467995039
 H         -1.7585258794       -4.8892200508       -1.0645646722
 H          1.2155251098       -4.7185560739       -1.9493516214
 H          0.6237544976       -5.0560633390       -0.2710688607
 H          0.0104068828       -2.5062358031       -1.9220828427
