  62
        -98.94229555
 C         -1.8712896499       -0.6019901396        0.1429469500
 C         -2.9497806897       -0.4344785602        1.0513798904
 C         -4.0369623099        0.4553101400        0.6255118012
 C         -3.9485817802        1.0724546407       -0.5662829984
 C         -5.0018121304        1.9663842610       -1.1522501176
 C         -5.9879252206        1.1694488515       -2.0175972278
 C         -6.5350242603       -0.0837847689       -1.3341968285
 H         -7.2430836605       -0.5477251285       -2.0242791685
 H         -5.7183797803       -0.7940347090       -1.1858393691
 C         -7.2279607400        0.1777570802        0.0104158419
 H         -8.1612604000       -0.3885138998        0.0392086518
 H         -7.4877186300        1.2336634502        0.0943009926
 C         -6.4143246397       -0.2423489105        1.2360922614
 H         -7.0751455494       -0.2191442810        2.1066823416
 H         -6.0720207196       -1.2729471704        1.1130360607
 C         -5.1979137396        0.6332815594        1.5628275516
 H         -5.5002716097        1.6817164294        1.6066593323
 H         -4.8325296094        0.3396169488        2.5512389414
 H         -5.4764691408        0.8646086821       -2.9335737482
 H         -6.8147201907        1.8266817016       -2.2930146972
 H         -5.5329235502        2.4690296305       -0.3461919572
 H         -4.5099856106        2.7165849614       -1.7739769373
 O         -2.8929112204        0.9102640313       -1.4004051088
 C         -1.8316323903        0.0705852912       -1.0790796196
 O         -0.9483228005        0.0359190717       -1.9562627898
 H          0.5798515999        0.5955147309       -0.3880612999
 C          0.9717820901        0.2698629403        0.5641630598
 C          0.3897752104       -0.8154760801        1.2050851693
 C          0.9130331007       -1.2228329108        2.4265691489
 C          1.9892658408       -0.5589162511        2.9903388590
 C          2.5667665706        0.5214600993        2.3478364295
 C          2.0510060802        0.9360712400        1.1264598899
 N          2.6345086200        2.0303502605        0.4545673504
 S          4.2610586099        1.8946556708        0.0718229599
 O          5.0372687202        2.0007089501        1.2814685798
 O          4.5072014296        2.9003116914       -0.9358498195
 C          4.4267224298        0.2608428612       -0.6211185411
 C          4.1482573895        0.0859022620       -1.9621488611
 C          4.2033229594       -1.1907136477       -2.4974112219
 C          4.5191121397       -2.2670295782       -1.6823490427
 C          4.7933344100       -2.0748981390       -0.3372269726
 C          4.7486873901       -0.7994153493        0.2025560982
 H          4.9628551304       -0.6077155399        1.2408283982
 H          5.0373624302       -2.9141914593        0.2935328068
 H          4.5491633996       -3.2613068079       -2.0984195033
 H          3.9900378891       -1.3415099571       -3.5433666120
 H          3.9048237993        0.9484526823       -2.5619851706
 H          2.1163627898        2.3019778309       -0.3694396693
 H          3.4083588607        1.0479686691        2.7682110796
 H          2.3816495911       -0.8841207016        3.9417131387
 H          0.4620244209       -2.0585671911        2.9410728185
 C         -0.7654727798       -1.5498164298        0.5747768192
 H         -1.2265881695       -2.1689070003        1.3604111589
 C         -0.3220282500       -2.4927698991       -0.5366628015
 C          0.9796977398       -2.3712938786       -1.2637524118
 C          0.7724837701       -3.4889948892       -0.2894452524
 H          0.6519131501       -4.4929295990       -0.6665194530
 H          1.2936475003       -3.4272998097        0.6537631875
 H          0.9823777495       -2.5902966580       -2.3202352519
 H          1.6488542198       -1.5718543287       -0.9884109815
 H         -1.1671652902       -2.8350653388       -1.1262433915
 O         -3.0011532394       -1.0136774009        2.1693231801
