  62
        -98.93641985
 C          1.8573505667        0.6587446411        0.1680873389
 C          2.9224252943        0.5010123059        1.0909332984
 C          4.0396238901       -0.3682743905        0.6852093418
 C          3.9893395661       -0.9717309065       -0.5144943352
 C          5.0351491270       -1.8468899899       -1.1480658270
 C          5.9698946782       -1.0157800383       -2.0433529524
 C          7.1665833569       -0.3944469983       -1.3242164886
 H          7.8722875369       -1.1832388993       -1.0552760119
 H          7.6679621491        0.2641162155       -2.0372412484
 C          6.8289574723        0.4094075422       -0.0657972713
 H          5.9481452589        1.0275035776       -0.2490581008
 H          7.6624721435        1.0858915891        0.1328921812
 C          6.5993816331       -0.4724507759        1.1706854184
 H          7.2162162618       -0.1076912927        1.9946485790
 H          6.9403698342       -1.4849010912        0.9550325300
 C          5.1533157489       -0.5132309292        1.6859020871
 H          4.9997132299       -1.4420304795        2.2457669781
 H          4.9959667179        0.3058701867        2.3947396783
 H          5.3727164690       -0.2294003471       -2.5121898580
 H          6.3506430712       -1.6559184682       -2.8418200886
 H          4.5019927669       -2.5654931360       -1.7742286256
 H          5.5942079670       -2.3895519304       -0.3915785496
 O          2.9427014635       -0.8082339113       -1.3667826747
 C          1.8554045311       -0.0024767450       -1.0602982838
 O          0.9876507464        0.0188957297       -1.9533478393
 O          2.9443223335        1.0797665759        2.2106648703
 C          0.7269661582        1.5819018649        0.5887105952
 C         -0.4199596471        0.8193840914        1.2000537676
 C         -0.9601778299        1.2016013791        2.4221837744
 C         -2.0277247920        0.5102813635        2.9691608399
 C         -2.5809492962       -0.5709979900        2.3072543854
 C         -2.0495521640       -0.9592493729        1.0838617653
 C         -0.9768125100       -0.2677428920        0.5399057371
 H         -0.5695719708       -0.5745014387       -0.4123378584
 N         -2.6127357951       -2.0509665629        0.3911412368
 S         -4.2431754318       -1.9384040635        0.0160100334
 O         -5.0144187796       -2.1027762326        1.2223435575
 O         -4.4692309149       -2.9148223341       -1.0246331608
 C         -4.4469495734       -0.2860932312       -0.6207263850
 C         -4.8078250724        0.7356730125        0.2347919021
 C         -4.8816733097        2.0274649061       -0.2612858351
 C         -4.5984696844        2.2735925346       -1.5956639252
 C         -4.2443401050        1.2351628270       -2.4434747326
 C         -4.1592570263       -0.0572022362       -1.9516863407
 H         -3.8849850004       -0.8913282130       -2.5778702504
 H         -4.0245074907        1.4279253120       -3.4811566374
 H         -4.6516045724        3.2804172677       -1.9778610702
 H         -5.1561174573        2.8371990369        0.3951253431
 H         -5.0288292605        0.5023077961        1.2630092186
 H         -2.0912181846       -2.2963924869       -0.4388611651
 H         -3.4154795653       -1.1188114084        2.7142320487
 H         -2.4327412222        0.8151090724        3.9219564681
 H         -0.5288602550        2.0391321192        2.9503959246
 H          1.1647046387        2.2069333874        1.3829093844
 C          0.2786365963        2.5201421846       -0.5246502614
 C         -1.0113218377        2.3774318035       -1.2688130361
 C         -0.8379605706        3.4938220192       -0.2864696622
 H         -0.7322954781        4.5018904480       -0.6568253421
 H         -1.3696681544        3.4167675290        0.6497074113
 H         -1.0042483626        2.6017923980       -2.3241638830
 H         -1.6692589270        1.5645396239       -1.0060987475
 H          1.1240216155        2.8816996451       -1.1022220666
