  62
        -98.94464113
 C         -0.7847545304       -1.3682060070        0.2963479115
 C         -1.1465982321       -0.4568205801       -0.7259482160
 C         -2.2581863143        0.4504236138       -0.4011079427
 C         -2.7717661957        0.4732208866        0.8405531294
 C         -3.8920297894        1.3526300304        1.3251250831
 C         -5.2900823817        0.7952679640        1.0225779370
 C         -5.7134576204        0.8604294325       -0.4456338756
 H         -6.7831558709        0.6445126200       -0.4800523338
 H         -5.5752778180        1.8755674042       -0.8189794206
 C         -4.9824458524       -0.1309949179       -1.3621339431
 H         -4.5097117732       -0.9075942218       -0.7565467695
 H         -5.7062894492       -0.6288843440       -2.0113308888
 C         -3.9243750347        0.5019581671       -2.2666971826
 H         -4.4054632430        1.1807145310       -2.9747157651
 H         -3.4421548214       -0.2941540008       -2.8399127347
 C         -2.8324008032        1.2738787530       -1.5140748746
 H         -2.0239682451        1.4990852926       -2.2142076562
 H         -3.2381806010        2.2100921942       -1.1319618928
 H         -5.3362485283       -0.2398829430        1.3684096672
 H         -6.0065550006        1.3739833344        1.6100686050
 H         -3.7813714752        1.4291604320        2.4085199577
 H         -3.7975452698        2.3483124080        0.8921805846
 O         -2.2994766756       -0.3223477538        1.8356382367
 C         -1.3470904189       -1.2912062347        1.5745621404
 O         -1.0782798595       -2.0175491416        2.5522507757
 H          1.6006328943       -0.3940680447       -0.9480861109
 C          2.1760436729       -0.9369537231       -0.2135658976
 C          1.6286672783       -2.0449000523        0.4188236854
 C          2.3987755859       -2.7413876004        1.3431242033
 C          3.6907732935       -2.3399356460        1.6291283878
 C          4.2284878834       -1.2248867474        1.0138426568
 C          3.4636364035       -0.5174769174        0.0915075877
 N          3.9879893346        0.6269356174       -0.5210595123
 S          3.0150955918        1.8680877212       -1.0541945180
 O          2.4591872827        1.5542540861       -2.3448197149
 O          3.8866195076        3.0265329808       -1.0242866420
 C          1.7153376433        2.1027606705        0.1480589510
 C          0.5196070527        2.6198359838       -0.3053013491
 C         -0.4836189313        2.8989065116        0.6080326706
 C         -0.2829309289        2.6405879938        1.9542663658
 C          0.9218068511        2.1171199497        2.3946579003
 C          1.9376849260        1.8578813642        1.4883653113
 H          2.8841429905        1.4631063472        1.8195376409
 H          1.0748173806        1.9113026916        3.4419435292
 H         -1.0692093825        2.8471140702        2.6630938508
 H         -1.4151110407        3.3177677371        0.2650146890
 H          0.3939951632        2.7820504463       -1.3638507322
 H          4.8626508660        0.9620260260       -0.1454148129
 H          5.2313062193       -0.8982972141        1.2428022484
 H          4.2803280031       -2.8913413300        2.3453201134
 H          1.9718628585       -3.5950848980        1.8477598651
 C          0.2211989134       -2.4930767685        0.1103535030
 H         -0.0504935240       -3.2557188003        0.8539454560
 C          0.1668980388       -3.1317854044       -1.2640858208
 C          0.5976965322       -4.5575995501       -1.4217433843
 C         -0.8518594210       -4.1945566261       -1.5392606279
 H         -1.3175657681       -4.2209979553       -2.5129610785
 H         -1.5140891049       -4.4725068521       -0.7318263813
 H          1.1323582454       -4.8364826031       -2.3167096764
 H          0.9153379538       -5.0876319661       -0.5365841501
 H          0.3974297429       -2.4434111454       -2.0666768742
 O         -0.6014037216       -0.3898353518       -1.8587295913
