  62
        -98.93459051
 C          1.7611024417        0.8795160756       -0.8879262924
 C          1.9993763641        0.2607417163        0.3619620008
 C          3.4143167954        0.0663377881        0.7397860209
 C          4.3891298947        0.4944242743       -0.0824609893
 C          5.8975035306        0.4639869515        0.0523222591
 C          6.5704490855       -0.3950353493        1.1196534016
 C          6.4342763819       -1.9024186721        0.9065355851
 H          7.0291951256       -2.1844486945        0.0340832499
 H          6.8584603991       -2.4098949460        1.7757018487
 C          5.0129877384       -2.4107925007        0.6783165146
 H          5.0649988888       -3.4931824045        0.5327653335
 H          4.6139399620       -1.9819914881       -0.2431663444
 C          4.0315225555       -2.1417856538        1.8172617972
 H          3.1119196744       -2.6897434643        1.5953654110
 H          4.4369260748       -2.5342518889        2.7518301198
 C          3.6510988905       -0.6662164178        2.0291632683
 H          2.7036817520       -0.6358379667        2.5753178859
 H          4.3923430410       -0.1492105252        2.6337409693
 H          6.2155609052       -0.1153422316        2.1072107313
 H          7.6362127734       -0.1526092774        1.0867647774
 H          6.2779535024        0.1737085477       -0.9323567048
 H          6.2021205402        1.5055954776        0.2033788790
 O          4.1073977577        1.1293093261       -1.2592443803
 C          2.8091670424        1.3396196108       -1.6862962507
 O          2.7205019013        1.9450926700       -2.7733125643
 H         -2.0194526571        0.1986955022       -0.3220239265
 C         -1.6833836590        1.1185247439        0.1252633868
 C         -0.5010187235        1.7084533498       -0.2895857966
 C         -0.0885633155        2.8842195009        0.3336405448
 C         -0.8329527294        3.4428622505        1.3531066333
 C         -2.0199830980        2.8558284148        1.7566106926
 C         -2.4446106802        1.6886500862        1.1364104390
 N         -3.6373035127        1.0588661773        1.5231887560
 S         -4.6537019675        0.4392112130        0.3490005083
 O         -4.5999200405        1.2190675666       -0.8662408759
 O         -5.9487413788        0.3579507479        0.9917971736
 C         -4.0648327349       -1.2126748110        0.0441798652
 C         -4.0236573766       -1.6812470790       -1.2540508413
 C         -3.6103361775       -2.9840531662       -1.4846733067
 C         -3.2477190352       -3.7914117928       -0.4173025306
 C         -3.2947266453       -3.3051116128        0.8803759700
 C         -3.7107235883       -2.0049462744        1.1179005627
 H         -3.7581348856       -1.5948726122        2.1127412060
 H         -3.0075329968       -3.9347909984        1.7069811862
 H         -2.9230925760       -4.8039046183       -0.5991058824
 H         -3.5712138619       -3.3627722391       -2.4938850842
 H         -4.3041023330       -1.0154049037       -2.0548209433
 H         -4.1510766132        1.5295785535        2.2536690378
 H         -2.6078240649        3.2942275090        2.5489769951
 H         -0.4936358561        4.3486800772        1.8331838273
 H          0.8352425484        3.3475326851        0.0127350931
 C          0.3536239350        1.1396527828       -1.3953777199
 H          0.4688857379        1.9253883680       -2.1612944463
 C         -0.2850236367       -0.0536544673       -2.0908700113
 C          0.5534747300       -1.0686639626       -2.8073232482
 C         -0.1700596355       -1.4465695338       -1.5515630878
 H         -1.0288100927       -2.0972854709       -1.6282416951
 H          0.4006214481       -1.5830899190       -0.6472627718
 H          0.1933488625       -1.4563473389       -3.7483423044
 H          1.6265149275       -0.9482997813       -2.7677945309
 H         -1.2261163992        0.2121300890       -2.5642834824
 O          1.0874309830       -0.1141678422        1.1421351210
