  62
        -98.93610700
 C         -2.3141730100       -1.0673568335        0.1485841297
 C         -3.5603266966       -0.9370363984        0.8135246206
 C         -4.5529000483       -0.0298572193        0.2130242067
 C         -4.2263052123        0.6609294017       -0.8946156035
 C         -5.0304631757        1.6223428233       -1.7446668420
 C         -6.3416754504        2.2108108593       -1.2302621158
 C         -6.1925646033        3.1713223519       -0.0508936667
 H         -5.6986563605        4.0801933233       -0.4039235927
 H         -7.1917396218        3.4478118783        0.2926515865
 C         -5.3884820107        2.6417430474        1.1339382327
 H         -5.3582929922        3.4268170188        1.8944429560
 H         -4.3576033857        2.4565273051        0.8242758197
 C         -5.9451169075        1.3801323379        1.7908590159
 H         -6.9875113448        1.5415116421        2.0720412145
 H         -5.3741044710        1.2074845603        2.7070176726
 C         -5.8581239940        0.0982759564        0.9445196179
 H         -5.9150213127       -0.7575678921        1.6233382035
 H         -6.6938811191        0.0229529974        0.2529540117
 H         -7.0419208280        1.4165079491       -0.9890798210
 H         -6.7759805821        2.7738929019       -2.0608774041
 H         -5.2334993704        1.0910656816       -2.6813244138
 H         -4.3456554486        2.4382374104       -1.9975876058
 O         -3.0023026389        0.5302164637       -1.4825206845
 C         -2.0192221072       -0.3184819017       -0.9906408082
 O         -0.9701866027       -0.2994422877       -1.6618083777
 O         -3.8399191879       -1.5636012126        1.8698546121
 C         -1.2900248474       -1.9992724022        0.7742846901
 C          0.0180604264       -1.2740567260        0.9541892537
 C          0.1779251441       -0.4073134510        2.0312127318
 C          1.3494924579        0.3079335191        2.1925061062
 C          2.3802770171        0.1835944270        1.2771410268
 C          2.2205832452       -0.6608565992        0.1872395453
 C          1.0538972827       -1.4003934908        0.0430814829
 H          0.9350667471       -2.0460654508       -0.8130158255
 N          3.2531301267       -0.7861279344       -0.7563327019
 S          4.0612218648        0.5912653219       -1.2699493799
 O          3.2364233777        1.7744728797       -1.1947793485
 O          4.5867629673        0.2525877220       -2.5750554572
 C          5.4209173556        0.7223199898       -0.1243730005
 C          5.6566724546        1.9141993992        0.5322526052
 C          6.7277696487        1.9975644667        1.4085210055
 C          7.5412534552        0.8934133335        1.6107297582
 C          7.2930970678       -0.2958481766        0.9416072278
 C          6.2247762808       -0.3850720995        0.0637268868
 H          6.0003265809       -1.2888708241       -0.4774355866
 H          7.9278594765       -1.1525023102        1.1013328854
 H          8.3734460831        0.9603299647        2.2935828344
 H          6.9220267086        2.9218367945        1.9286547645
 H          4.9944895336        2.7453814720        0.3474889871
 H          3.0056541608       -1.3672581517       -1.5444481848
 H          3.2901614897        0.7505200066        1.3873967079
 H          1.4619488826        0.9728181561        3.0354708945
 H         -0.6341791940       -0.2938148488        2.7361675331
 H         -1.6997868859       -2.2166805302        1.7737088419
 C         -1.1332415516       -3.3403018317        0.0729054939
 C         -2.3319247899       -4.0553923137       -0.4731193494
 C         -1.2874172838       -3.5235741238       -1.4059320141
 H         -0.6367156024       -4.2304804754       -1.9006223174
 H         -1.5209424130       -2.6573060707       -2.0047920969
 H         -2.4056435824       -5.1233566708       -0.3344139095
 H         -3.2801713980       -3.5400037699       -0.4246284738
 H         -0.3830223406       -3.9572577729        0.5586480771
