  62
        -98.94433106
 C         -2.3503559766       -0.5265928878        0.1926387216
 C         -3.4373873965       -0.5383912053        1.0989133478
 C         -4.4421718761        0.5156940149        0.9097074783
 C         -4.2629958882        1.4268122356       -0.0643545697
 C         -5.2271590136        2.5295083193       -0.3915027763
 C         -6.2363565118        2.0875793814       -1.4604374808
 C         -6.8945227852        0.7391228303       -1.1681002362
 H         -7.6059916145        0.5437425342       -1.9733763463
 H         -6.1351239333       -0.0449074551       -1.2133103714
 C         -7.6190472031        0.6654330034        0.1832660273
 H         -8.5879256380        0.1840932957        0.0344715243
 H         -7.8114164981        1.6722752398        0.5555190801
 C         -6.8823084493       -0.1390118208        1.2558873862
 H         -7.5731183385       -0.3115647357        2.0854199128
 H         -6.6036634003       -1.1163072004        0.8537046265
 C         -5.6246010443        0.5191252452        1.8374299985
 H         -5.8575939796        1.5346138952        2.1637912383
 H         -5.3197262227       -0.0621087523        2.7126066667
 H         -7.0043280158        2.8581234508       -1.5496028038
 H         -5.7157150856        2.0142000907       -2.4181176798
 H         -4.6591557440        3.3809428178       -0.7702352711
 H         -5.7498597045        2.8283356865        0.5150697837
 O         -3.1937160851        1.4190733931       -0.9016065760
 C         -2.2190252536        0.4365155971       -0.8074439730
 O         -1.3094063177        0.5305314863       -1.6542064772
 O         -3.5573458120       -1.3864473045        2.0234118992
 C         -1.2801704470       -1.5956721511        0.3192839345
 C          0.0645389954       -0.9486014867        0.5384223867
 C          0.2053228594       -0.0371098236        1.5825521926
 C          1.4109433248        0.5958545078        1.8104315909
 C          2.5076561586        0.3318331102        1.0072810658
 C          2.3791544894       -0.5731748866       -0.0358418487
 C          1.1651837966       -1.2135153561       -0.2590066988
 H          1.0831744642       -1.9117072021       -1.0772417181
 N          3.4884590951       -0.8696410013       -0.8425208354
 S          4.5071773738        0.3628779190       -1.3441481093
 O          3.8046919677        1.6124377423       -1.5202931507
 O          5.1791552849       -0.1663907848       -2.5113685373
 C          5.6859267980        0.5073648346       -0.0155803235
 C          6.2672667124       -0.6435820831        0.4795482663
 C          7.1951714391       -0.5368997061        1.5032294194
 C          7.5286761056        0.7109823864        2.0083859609
 C          6.9401155195        1.8573862712        1.4971959682
 C          6.0094401988        1.7574543355        0.4746711056
 H          5.5193623371        2.6204608277        0.0523495243
 H          7.2000820875        2.8271961970        1.8902874917
 H          8.2507339721        0.7907865127        2.8056372732
 H          7.6543244692       -1.4260721227        1.9043250360
 H          5.9826541189       -1.5943825519        0.0612495141
 H          3.2874962644       -1.5068229510       -1.5995895875
 H          3.4477856261        0.8316555648        1.1733657143
 H          1.5015245341        1.3036032627        2.6205827115
 H         -0.6515863152        0.1748598857        2.2075523472
 H         -1.5394840615       -2.1619156139        1.2259648863
 C         -1.3298926363       -2.5325063524       -0.8691156500
 C         -0.8360674409       -3.9418836104       -0.7403271852
 C         -2.3052137675       -3.6697739019       -0.8532386570
 H         -2.8105328491       -3.9283598544       -1.7717965776
 H         -2.9179815006       -3.7841034373        0.0288853932
 H         -0.3338285459       -4.3923835272       -1.5833438912
 H         -0.4501747635       -4.2491464335        0.2196830303
 H         -1.1791548049       -2.0182223514       -1.8123754319
