  62
        -98.93893950
 C          2.4633844382        0.9634794481        0.3639651090
 C          2.8158392793       -0.2041594378        1.0926356379
 C          4.1927412866       -0.6828374429        0.9371052012
 C          5.0487568162        0.0000821248        0.1559552592
 C          6.4979640289       -0.3312820935       -0.0760614567
 C          6.7333477294       -1.3846594692       -1.1670413614
 C          6.3479082320       -2.8140576072       -0.7845078177
 H          6.7634739264       -3.4735084892       -1.5489620751
 H          6.8201979782       -3.0755010455        0.1628960915
 C          4.8351119690       -3.0582838046       -0.6922726490
 H          4.3028474937       -2.2523474292       -1.2030407147
 H          4.5832366054       -3.9859398853       -1.2110840026
 C          4.2972250136       -3.1778281695        0.7338409284
 H          4.7219675614       -4.0626273238        1.2133349023
 H          3.2133347022       -3.3104704177        0.6814203539
 C          4.5815434268       -1.9586573250        1.6209072253
 H          3.9788734215       -2.0460599741        2.5283227120
 H          5.6346316044       -1.9341771299        1.9007302575
 H          6.1852764542       -1.0870907325       -2.0638453406
 H          7.7987416268       -1.3705562374       -1.4079423674
 H          6.9824014537        0.5976671029       -0.3842459477
 H          6.9497751884       -0.6659676603        0.8581657809
 O          4.6811866274        1.1214288744       -0.5141719808
 C          3.3867298800        1.6192226379       -0.4513633078
 O          3.2184687365        2.6330598738       -1.1577524928
 O          2.0145138812       -0.8124514129        1.8528781020
 C          1.0402826943        1.4615034351        0.5365380664
 C          0.1215258560        1.0374241397       -0.5848580454
 C          0.3860631851        1.3587097183       -1.9121152901
 C         -0.5071731122        1.0058038926       -2.9071674727
 C         -1.6884069112        0.3539717507       -2.5990776447
 C         -1.9599301810        0.0258605716       -1.2762181753
 C         -1.0482673819        0.3558619067       -0.2832352841
 H         -1.2678496347        0.0805222456        0.7382609849
 N         -3.1433718751       -0.6423409831       -0.9248977009
 S         -3.8742397066       -0.2253997958        0.5412289898
 O         -3.7911775219        1.2026764735        0.7460320075
 O         -3.3233938703       -1.0527923442        1.5853458447
 C         -5.5618816742       -0.7038513400        0.2201130783
 C         -5.9311279789       -2.0227833745        0.4053614376
 C         -7.2366880241       -2.3972832782        0.1296461036
 C         -8.1454946316       -1.4529232362       -0.3245316548
 C         -7.7605711446       -0.1327257588       -0.5040377497
 C         -6.4563096917        0.2485585605       -0.2311670104
 H         -6.1145831097        1.2646904882       -0.3460989419
 H         -8.4702055920        0.5998169601       -0.8534571674
 H         -9.1612423549       -1.7471050174       -0.5365744203
 H         -7.5406192999       -3.4218789243        0.2711166898
 H         -5.1929330028       -2.7184066021        0.7693930963
 H         -3.8110405951       -0.6883882447       -1.6824248982
 H         -2.3921227181        0.0969481718       -3.3762909285
 H         -0.2888702896        1.2578240275       -3.9340991635
 H          1.2935081039        1.8910097119       -2.1523116085
 H          0.6766840433        0.9750873743        1.4529240846
 C          0.9362270563        2.9647649196        0.7235710922
 C         -0.3372183036        3.5369550674        1.2679604879
 C          0.9044764201        3.5360816565        2.1074258944
 H          1.4054930620        4.4751091366        2.2891219316
 H          0.9591029359        2.8438765059        2.9353202864
 H         -0.6868177799        4.4777616218        0.8708576257
 H         -1.1323828160        2.8492417248        1.5191123306
 H          1.4548517452        3.5281189093       -0.0412448270
