  62
        -98.92982012
 C          2.4826051545        0.9109240975        0.4172075439
 C          2.5710568127       -0.4851156625        0.6415742848
 C          3.7032738185       -1.1969360948        0.0258015743
 C          4.5846584084       -0.5052973539       -0.7202375033
 C          5.8009662291       -0.9541541111       -1.5032474055
 C          6.3950098575       -2.3444572344       -1.2939659434
 C          7.0429074760       -2.5629943666        0.0729243487
 H          7.3358757599       -3.6123827369        0.1484452355
 H          7.9520968327       -1.9588859614        0.1262594472
 C          6.1785523050       -2.2001714402        1.2777951076
 H          6.7651768850       -2.3926636993        2.1801654732
 H          5.9555535091       -1.1314435256        1.2609814256
 C          4.8695141705       -2.9774052387        1.4012618201
 H          5.0746608580       -4.0495414424        1.3827147594
 H          4.4342122765       -2.7369872051        2.3749817972
 C          3.8089763192       -2.6633356697        0.3318196667
 H          2.8329585475       -2.9648919729        0.7235565380
 H          3.9828662149       -3.2334708354       -0.5778751649
 H          5.6458977461       -3.1064697764       -1.4881292535
 H          7.1740426490       -2.4669800258       -2.0513730936
 H          5.5265470492       -0.8501626890       -2.5589021184
 H          6.5728420671       -0.2020310531       -1.3113375805
 O          4.4489619747        0.8360459253       -0.9255299305
 C          3.4110517733        1.5793198584       -0.3793832434
 O          3.4520618010        2.7855745328       -0.6796563998
 O          1.7301717379       -1.1163308494        1.3387196470
 C          1.3115154530        1.6301865254        1.0628610416
 C          0.1350711771        1.6338231496        0.1203758453
 C          0.2373518180        2.1780662324       -1.1564934294
 C         -0.8461019530        2.1521139575       -2.0150284254
 C         -2.0466562845        1.5817272644       -1.6268344734
 C         -2.1520203186        1.0149130103       -0.3640827887
 C         -1.0642630683        1.0515355913        0.5009201186
 H         -1.1447216077        0.5998104432        1.4808146500
 N         -3.3708416740        0.4380408285        0.0544057182
 S         -4.0497723347       -0.7910698787       -0.8877756875
 O         -3.2416539427       -1.9896079242       -0.8066732222
 O         -4.2995897276       -0.2817870395       -2.2112609463
 C         -5.5925053397       -1.0271765968       -0.0286799940
 C         -6.6005588719       -0.1033423620       -0.2279894789
 C         -7.7971528076       -0.2613067308        0.4522997816
 C         -7.9643577782       -1.3335602066        1.3163599137
 C         -6.9435998966       -2.2527491838        1.5052687917
 C         -5.7433513905       -2.0996719864        0.8286674811
 H         -4.9254346044       -2.7937427000        0.9393010373
 H         -7.0771399042       -3.0866318955        2.1755559595
 H         -8.8970424642       -1.4551987062        1.8442204647
 H         -8.5941116859        0.4500304220        0.3072328111
 H         -6.4286553224        0.7088907437       -0.9144343299
 H         -3.2988315229        0.0918835418        1.0033964996
 H         -2.8884101812        1.5464234869       -2.2979924545
 H         -0.7564321157        2.5817160504       -3.0017469205
 H          1.1752954389        2.6147808879       -1.4659250721
 H          1.0402774515        0.9983206247        1.9236369364
 C          1.6649998983        3.0072888493        1.6060156248
 C          1.0922864103        4.2856353870        1.0791368302
 C          0.6540748839        3.7673592333        2.4136256570
 H          0.9806552800        4.2796246489        3.3058018549
 H         -0.3387265350        3.3478910852        2.4811997797
 H          1.7457194253        5.1437474021        1.0410967470
 H          0.3927140376        4.2367200389        0.2599632332
 H          2.6932739320        3.0534271989        1.9492845855
