  62
        -98.94046093
 C         -1.8378861852       -1.1221577265        0.2251458006
 C         -2.1293045778       -0.0792039797       -0.6900272818
 C         -3.5591711277        0.1929534289       -0.9179948230
 C         -4.4880815134       -0.5385732010       -0.2786611751
 C         -5.9704600025       -0.3310559806       -0.3834583988
 C         -6.4730018158        0.6344582103        0.6989984321
 C         -5.6609111824        1.9257241720        0.8014259492
 H         -6.1261377721        2.5416080216        1.5741774543
 H         -4.6517790323        1.6875733628        1.1458701858
 C         -5.5728344972        2.7264595478       -0.5053069307
 H         -5.7455203407        3.7813227577       -0.2814721421
 H         -6.3605555697        2.4077802868       -1.1890928671
 C         -4.2200447532        2.6383178312       -1.2144362579
 H         -4.1955672427        3.4035733887       -1.9949974207
 H         -3.4188169550        2.8684076991       -0.5071592147
 C         -3.9024387496        1.2941282695       -1.8813771952
 H         -4.7319619429        0.9983108894       -2.5269987444
 H         -3.0146234834        1.4361674707       -2.5047448820
 H         -6.4289278455        0.1254289961        1.6646343991
 H         -7.5168699162        0.8749235027        0.4894054096
 H         -6.2094754938        0.0577611229       -1.3713954619
 H         -6.4632723729       -1.2961129963       -0.2536677917
 O         -4.1719587215       -1.5332728276        0.5886774085
 C         -2.8517415128       -1.8315931913        0.8782829357
 O         -2.7095294131       -2.7381416056        1.7224609715
 H          1.3192761787       -0.0762601992       -0.9458231455
 C          1.2309723891        0.3290490962        0.0501925807
 C          0.3783441898       -0.2738898543        0.9616485942
 C          0.2605451694        0.2838521078        2.2303431513
 C          0.9833124433        1.4104017493        2.5808986400
 C          1.8327520962        2.0101098307        1.6672548324
 C          1.9409235157        1.4702541783        0.3941634390
 N          2.8280461235        2.0705772213       -0.5347980604
 S          4.4338135665        1.6833620432       -0.2586643707
 O          4.8286831051        2.2375585969        1.0107980790
 O          5.1677412304        2.1383928619       -1.4175203876
 C          4.4426559621       -0.0990675387       -0.1794226351
 C          4.1609364232       -0.7150604127        1.0236789734
 C          4.0555984116       -2.0962481703        1.0593772194
 C          4.2287869555       -2.8328225819       -0.1026765448
 C          4.5137938094       -2.1991808619       -1.3027438756
 C          4.6146219169       -0.8179610839       -1.3454561475
 H          4.8333547306       -0.2854215526       -2.2573260736
 H          4.6496966691       -2.7759636475       -2.2036181564
 H          4.1394549095       -3.9075900572       -0.0722443239
 H          3.8293081110       -2.5914561353        1.9901330690
 H          4.0327073956       -0.1079079326        1.9049481656
 H          2.5917638568        1.8466696455       -1.4919039168
 H          2.4173995825        2.8790340287        1.9224589615
 H          0.8846279631        1.8253408412        3.5726241730
 H         -0.4078744003       -0.1784839062        2.9439591826
 C         -0.4162963959       -1.5042740526        0.6072774344
 H         -0.5263562316       -2.1097188375        1.5206277921
 C          0.3063311165       -2.3795308330       -0.4074377812
 C         -0.4121565867       -3.5061766748       -1.0858129405
 C          0.0441736016       -2.3214428421       -1.8807840820
 H          0.8829837141       -2.4474586582       -2.5499981179
 H         -0.6973167225       -1.6250404396       -2.2388576284
 H         -1.4688593180       -3.6108633543       -0.8858001314
 H          0.1037963736       -4.4453624389       -1.2141349753
 H          1.3327158998       -2.5696165951       -0.1072688438
 O         -1.2620211031        0.5960177303       -1.3013048080
