  62
        -98.94673520
 C          1.7106244431        1.3870296925       -0.0316603968
 C          2.5179190233        0.7395685669        0.9327553669
 C          3.0938824112       -0.5458741801        0.5241542090
 C          2.8413881210       -1.0299255191       -0.7061112338
 C          3.4033548129       -2.2999615401       -1.2856974898
 C          2.6199003079       -3.5647601217       -0.9108154851
 C          2.7678349435       -4.0182341237        0.5415139786
 H          2.3425940682       -5.0212437238        0.6107214976
 H          3.8256659958       -4.0965432056        0.7943055822
 C          2.0596523299       -3.1107170626        1.5571494091
 H          1.3382982775       -2.4756317013        1.0362364299
 H          1.4940894464       -3.7228916401        2.2633458892
 C          3.0022738967       -2.2279636820        2.3758991645
 H          3.6401696501       -2.8557923974        3.0020868709
 H          2.3997686374       -1.5991723200        3.0370842611
 C          3.8973876089       -1.3091935596        1.5333119450
 H          4.3700814148       -0.5845168840        2.2009739582
 H          4.6767127544       -1.8910721214        1.0418262649
 H          1.5646800033       -3.3929123809       -1.1270954359
 H          2.9723534727       -4.3704155553       -1.5586307975
 H          3.3712647931       -2.1850761863       -2.3711132892
 H          4.4444499582       -2.4093504437       -0.9800237842
 O          2.0466514995       -0.3836206236       -1.5989729215
 C          1.4449484183        0.8260323997       -1.2813979168
 O          0.7196190122        1.2900792693       -2.1790877742
 O          2.7455429389        1.2135454671        2.0794121217
 C          1.0700599887        2.7174790103        0.3198665481
 C         -0.4320732341        2.5833221587        0.2862551792
 C         -1.2689486663        3.4682361154       -0.3793825264
 C         -2.6396351591        3.2680468492       -0.3858129319
 C         -3.2049097199        2.1920258185        0.2728026138
 C         -2.3759300928        1.3024758618        0.9465801175
 C         -1.0052608122        1.5062899860        0.9532585908
 H         -0.3619501856        0.8126083783        1.4811097670
 N         -2.9392546695        0.1997522857        1.6239210083
 S         -3.7662445742       -0.9413347647        0.7215571925
 O         -4.8664294739       -0.2966554938        0.0519813508
 O         -4.1086648333       -1.9909814383        1.6536364336
 C         -2.6026244484       -1.5636665576       -0.4796155587
 C         -2.2246493948       -0.7545945373       -1.5330919650
 C         -1.3039359395       -1.2357581051       -2.4503217673
 C         -0.7899163191       -2.5149400709       -2.3059654600
 C         -1.1817573268       -3.3169448448       -1.2441203768
 C         -2.0891885113       -2.8349210052       -0.3149997629
 H         -2.4185729927       -3.4218703969        0.5273193688
 H         -0.7845432669       -4.3141043125       -1.1363365905
 H         -0.0786226209       -2.8843238270       -3.0285119734
 H         -0.9782605387       -0.5997850360       -3.2576108487
 H         -2.6448374492        0.2333994275       -1.6280504141
 H         -2.2804581540       -0.2735689991        2.2265577445
 H         -4.2676627458        2.0133664166        0.2591581648
 H         -3.2776205358        3.9613334931       -0.9127186220
 H         -0.8495234552        4.3123065178       -0.9013292545
 H          1.3711076925        2.9214524444        1.3584694025
 C          1.6060496643        3.8206935515       -0.5671654734
 C          1.6526442371        5.2335643258       -0.0693127866
 C          2.9209808687        4.4505343211       -0.2219591021
 H          3.5957359539        4.7089097211       -1.0241846559
 H          3.4193317170        4.1016167650        0.6708443280
 H          1.4591201630        6.0338276429       -0.7675748204
 H          1.2922572864        5.4239903875        0.9303361571
 H          1.3934677582        3.6524273867       -1.6167667023
