  62
        -98.94753034
 C          1.3351936521       -1.6292930439        0.5005543481
 C          1.1913317670       -0.3177734395        1.0188411054
 C          2.3763260796        0.5487924783        0.9118959227
 C          3.5066933866        0.0702210317        0.3641412233
 C          4.7737599215        0.8516791935        0.1718905860
 C          4.8190022999        1.5181960245       -1.2093418693
 C          3.5512207046        2.2966041717       -1.5615663802
 H          3.7141423647        2.7617788281       -2.5365921401
 H          2.7165188546        1.6003512306       -1.6780106161
 C          3.1628367091        3.3740078994       -0.5399982453
 H          2.8836090414        4.2810915253       -1.0805760309
 H          4.0209015242        3.6199561992        0.0874348839
 C          1.9712993322        2.9995074804        0.3439397093
 H          1.6250485200        3.9084663389        0.8452292181
 H          1.1571989921        2.6347835933       -0.2891556453
 C          2.2483661550        1.9529174880        1.4315325380
 H          3.1366840590        2.2381848738        1.9996427960
 H          1.3909902536        1.9425850390        2.1109060932
 H          4.9649052613        0.7427723193       -1.9649236371
 H          5.6792750833        2.1896367840       -1.2406368202
 H          4.8505833103        1.6053888263        0.9530859368
 H          5.6160773283        0.1630107005        0.2595320394
 O          3.6135425965       -1.1960661088       -0.1129705368
 C          2.5340492379       -2.0603482165       -0.0757225143
 O          2.7669694689       -3.1837289191       -0.5683398271
 H         -1.2486389773       -0.4571267848       -0.0179936896
 C         -1.3936833635       -1.2122063912       -0.7718967586
 C         -0.7149094264       -2.4174446936       -0.6694498008
 C         -0.9036893094       -3.3771636860       -1.6569418996
 C         -1.7463353377       -3.1267535095       -2.7258648245
 C         -2.4017675146       -1.9135178251       -2.8380342472
 C         -2.2170410358       -0.9475909517       -1.8551431050
 N         -2.8705941350        0.2908861422       -1.9178768020
 S         -2.1059054974        1.6652094875       -1.3388376076
 O         -2.8062920166        2.7594674542       -1.9844268282
 O         -0.6816908205        1.6220484489       -1.5792813149
 C         -2.4794656650        1.7228197675        0.4010028856
 C         -3.4931293381        0.9467611535        0.9242714834
 C         -3.7809681960        1.0476997405        2.2760484483
 C         -3.0607056575        1.9208102942        3.0755160120
 C         -2.0520296384        2.6994519127        2.5316966758
 C         -1.7584232529        2.6022960127        1.1816873903
 H         -0.9734892673        3.1822382064        0.7240352707
 H         -1.4876137435        3.3757217472        3.1540124042
 H         -3.2824800007        1.9915000181        4.1289707838
 H         -4.5626004704        0.4387233495        2.7017887434
 H         -4.0287504473        0.2669022610        0.2823938664
 H         -3.3872911634        0.4718709302       -2.7656048162
 H         -3.0463309984       -1.7117830224       -3.6801258199
 H         -1.8849936781       -3.8793031981       -3.4874051218
 H         -0.3712521339       -4.3149055448       -1.5921285627
 C          0.2153163259       -2.6605775145        0.4944930921
 H          0.7060616353       -3.6305094693        0.3358067417
 C         -0.5590312873       -2.7208756782        1.7972271561
 C         -1.3219199739       -3.9666584344        2.1290847429
 C         -0.0802783956       -3.6211899968        2.8942001296
 H         -0.1768191054       -3.2837513434        3.9150427784
 H          0.8117073787       -4.2027191017        2.7100557278
 H         -2.2749939934       -3.8690986180        2.6252954239
 H         -1.2720596660       -4.7861581827        1.4280598175
 H         -0.9899217592       -1.7712005095        2.0846351802
 O          0.1462340670        0.1284256424        1.5618949288
