  62
        -98.94368866
 C          1.2096876185        1.5827411048       -0.4780941755
 C          0.0465141696        1.4226561994       -1.2652833853
 C         -1.1380359120        2.1954445215       -0.8550396143
 C         -1.0651099398        2.9653383709        0.2441495334
 C         -2.1533065048        3.8152227575        0.8416780062
 C         -2.9116803341        3.0501950598        1.9391483780
 C         -4.0916019885        2.2214538527        1.4360545372
 H         -4.4683320687        1.6431192179        2.2829222107
 H         -4.8914418034        2.8899519202        1.1092323648
 C         -3.7508137115        1.2554944986        0.2984928007
 H         -4.5050126355        0.4646030778        0.2938180065
 H         -2.7906551523        0.7824595804        0.5181774558
 C         -3.7266692873        1.9300942995       -1.0822848299
 H         -4.1834145247        2.9163590085       -0.9981404191
 H         -4.3523939631        1.3583453662       -1.7711601723
 C         -2.3451923374        2.0607925784       -1.7426255458
 H         -2.1414263308        1.1719917824       -2.3480800634
 H         -2.3635071724        2.9103008363       -2.4339693060
 H         -3.2845306275        3.7654020504        2.6755145000
 H         -2.1996317087        2.3937080308        2.4470681487
 H         -2.8317658029        4.1684476897        0.0702872435
 H         -1.6581533423        4.6759312125        1.2964680693
 O          0.0573019371        3.0444337571        1.0096570046
 C          1.2070471776        2.3427552679        0.6904393237
 O          2.1391018732        2.4914972616        1.5045572230
 O          0.0002302687        0.6679965599       -2.2750643085
 C          2.4574654732        0.7953394295       -0.8461855293
 C          2.6555136202       -0.2659896085        0.2072014087
 C          3.7959089657       -0.4006859722        0.9860270997
 C          3.8420621030       -1.3543160135        1.9895726789
 C          2.7568494656       -2.1715996264        2.2467100376
 C          1.6156341944       -2.0532059965        1.4596286942
 C          1.5890862265       -1.1284256394        0.4311079541
 H          0.7048418753       -1.0366388324       -0.1817374030
 N          0.4939143739       -2.8656403968        1.6730835373
 S         -1.0331505204       -2.3081099111        1.2750273684
 O         -1.1789055717       -0.8910162774        1.5165756152
 O         -1.9286211816       -3.1656595591        2.0260369290
 C         -1.2000028670       -2.6925633088       -0.4553581553
 C         -0.6016505583       -3.8381653596       -0.9422746272
 C         -0.7613604525       -4.1589294737       -2.2804173559
 C         -1.5166057083       -3.3379995578       -3.1040608109
 C         -2.1168139186       -2.1964776501       -2.5979064241
 C         -1.9600788924       -1.8694811830       -1.2606221737
 H         -2.4001696259       -0.9823498675       -0.8359519091
 H         -2.6993423265       -1.5535639208       -3.2381521300
 H         -1.6366946891       -3.5867925593       -4.1467429052
 H         -0.2944604351       -5.0460479671       -2.6773581955
 H         -0.0177021664       -4.4505574688       -0.2757166926
 H          0.5031629512       -3.4135772821        2.5202647024
 H          2.7858226885       -2.8908873781        3.0508890110
 H          4.7306625054       -1.4473617597        2.5955576919
 H          4.6386287485        0.2505481227        0.8230104089
 H          2.2176711185        0.2955324242       -1.7959623406
 C          3.6518114724        1.6995661011       -1.0515657302
 C          4.8025045415        1.2346414139       -1.8919965650
 C          3.8844275639        2.3025302586       -2.4034392806
 H          4.2499016770        3.3169357661       -2.4581544141
 H          3.1879367205        2.0469478535       -3.1885117216
 H          5.8022270540        1.5165528674       -1.5984304374
 H          4.7322671837        0.2521107915       -2.3332290891
 H          3.8644084007        2.3170173719       -0.1867182331
