  62
        -98.94393539
 C          1.8293228906        1.1411075792        0.2218025405
 C          2.1631019406        0.1224126295       -0.7026639799
 C          3.5930577207       -0.0064137906       -1.0213505896
 C          4.4750605107        0.8371317490       -0.4546578192
 C          5.9625334907        0.7787155688       -0.6456734589
 C          6.6249450004       -0.1013053818        0.4237693709
 C          5.9579708301       -1.4652656617        0.6022970403
 H          6.5269988998       -2.0088701721        1.3596007002
 H          4.9503399800       -1.3214944217        0.9991229801
 C          5.8794389901       -2.3066670012       -0.6791977701
 H          6.1744655599       -3.3315039114       -0.4441352004
 H          6.5877635604       -1.9267132811       -1.4163059898
 C          4.4859718702       -2.3780875207       -1.3068754804
 H          3.7545519300       -2.6694958209       -0.5483851106
 H          4.4954429702       -3.1624137804       -2.0686245907
 C          3.9912145706       -1.0920727304       -1.9809645300
 H          4.7449648708       -0.7308211302       -2.6836739997
 H          3.0862805707       -1.3400169600       -2.5439127502
 H          7.6737759004       -0.2398852919        0.1554397910
 H          6.5852353003        0.4264183479        1.3794391111
 H          6.1811383308        0.3897028591       -1.6381443290
 H          6.3595909409        1.7920601886       -0.5663783384
 O          4.1115983207        1.8202693087        0.4080280111
 C          2.7871252707        1.9888515988        0.7777958710
 O          2.5934948107        2.9099105786        1.5966612613
 H         -2.0283029595        0.1215451000        0.0629139293
 C         -1.4388568998       -0.4184448504        0.7845251492
 C         -0.1946253598        0.0567540493        1.1692225797
 C          0.5359756299       -0.6690331112        2.1069172995
 C          0.0475121296       -1.8542503813        2.6198441690
 C         -1.1829820904       -2.3391957209        2.2130353186
 C         -1.9297502601       -1.6143195005        1.2923754587
 N         -3.2025479501       -2.0570535301        0.9133158083
 S         -3.8711443598       -1.7166907394       -0.5780443117
 O         -4.9758173199       -2.6477105491       -0.6841241723
 O         -2.9035213996       -1.7645374392       -1.6478646715
 C         -4.5286388295       -0.0702398293       -0.4089966712
 C         -4.4971374791        0.7741518511       -1.5009512309
 C         -5.0534559889        2.0390734812       -1.3888344005
 C         -5.6279045590        2.4362457108       -0.1912788105
 C         -5.6518343994        1.5760172904        0.8958226092
 C         -5.1025928896        0.3083086804        0.7885199488
 H         -5.1052651499       -0.3846788300        1.6129579386
 H         -6.0975956095        1.8889996401        1.8261852292
 H         -6.0567277689        3.4221366909       -0.1057959502
 H         -5.0359950186        2.7083407315       -2.2346113303
 H         -4.0279320290        0.4290917914       -2.4090105409
 H         -3.4602400004       -2.9739486501        1.2463827979
 H         -1.5621650307       -3.2707950810        2.6045765581
 H          0.6310346194       -2.4105472617        3.3381999789
 H          1.5011659299       -0.2933718315        2.4197505199
 C          0.3825867206        1.3442749993        0.6340908603
 H          0.4023133306        2.0769656090        1.4546363305
 C         -0.4113569991        1.9287474999       -0.5158701897
 C         -1.5723963889        2.8359800901       -0.2428904195
 C         -0.2978057487        3.3958841300       -0.7972444391
 H         -0.2796382885        3.7232824204       -1.8258746890
 H          0.3377765613        3.9751757897       -0.1432058088
 H         -1.8101613891        3.0444501297        0.7891480205
 H         -2.4342291588        2.7799285005       -0.8904245997
 H         -0.4709835790        1.2569790503       -1.3655908099
 O          1.3149595806       -0.6427265701       -1.2322737203
