  62
        -98.94431392
 C          1.8533488142       -0.7461310949       -0.0488611313
 C          2.4039582712        0.5505644010       -0.1884758387
 C          3.8225517972        0.5989992453       -0.5662684393
 C          4.5002091807       -0.5442778049       -0.7765749852
 C          5.9412208175       -0.6565592859       -1.1951242704
 C          6.9382914002       -0.5718387825       -0.0315306347
 C          7.1077293586        0.8199507228        0.5786784552
 H          7.9845723728        0.7806825881        1.2280782222
 H          7.3210743562        1.5390424796       -0.2128134252
 C          5.9049015952        1.3004594149        1.4026340512
 H          5.2701635223        0.4474011254        1.6534068918
 H          6.2559112016        1.7255832816        2.3457027393
 C          5.0506753460        2.3664534508        0.7161508031
 H          4.2096057475        2.6063274220        1.3718365729
 H          5.6398097010        3.2760421421        0.5790092259
 C          4.4831985415        1.9420737742       -0.6447855875
 H          5.2727614959        1.9360577638       -1.3960570575
 H          3.7221401126        2.6684010499       -0.9409149924
 H          6.6294859536       -1.2751142391        0.7452614607
 H          7.9092005527       -0.8998126059       -0.4098810603
 H          6.0506886254       -1.6333387297       -1.6712520441
 H          6.1708275668        0.1158485941       -1.9296413370
 O          3.9267431898       -1.7706576972       -0.6495375208
 C          2.6016611282       -1.9025529469       -0.2669221912
 O          2.2090443581       -3.0829629977       -0.1685069568
 O          1.7486444984        1.6107231223       -0.0143265756
 C          0.4020892183       -0.9111715319        0.3639322309
 C         -0.5049191771       -0.1868743908       -0.6005913541
 C         -0.2872766906       -0.3304772239       -1.9691185741
 C         -1.0825650669        0.3282519359       -2.8853610976
 C         -2.1272745028        1.1299888480       -2.4589306691
 C         -2.3646902463        1.2670465018       -1.0977730766
 C         -1.5603495186        0.6057220396       -0.1778320397
 H         -1.7618548234        0.7442440567        0.8708817437
 N         -3.4198576588        2.0691790099       -0.6338749890
 S         -4.3908689479        1.5024546012        0.6027585775
 O         -5.6282367231        2.2385869132        0.4598874098
 O         -3.7222915101        1.6340095702        1.8716678987
 C         -4.6494261893       -0.2189534378        0.2122852320
 C         -5.3380163049       -0.5269455833       -0.9448819661
 C         -5.5053484153       -1.8573530579       -1.2914518604
 C         -4.9809942694       -2.8528173255       -0.4807496523
 C         -4.2986036623       -2.5272826055        0.6807648201
 C         -4.1284105680       -1.1975191901        1.0325006466
 H         -3.6030386921       -0.9019085862        1.9257304798
 H         -3.8951696944       -3.3033375264        1.3118064500
 H         -5.1064663132       -3.8886736265       -0.7539432131
 H         -6.0399306510       -2.1148470477       -2.1915413227
 H         -5.7417734203        0.2716875324       -1.5457026528
 H         -3.9683235190        2.5015714487       -1.3627221138
 H         -2.7455339969        1.6525012947       -3.1728701565
 H         -0.8909124012        0.2158139646       -3.9418102543
 H          0.5285387639       -0.9569279403       -2.3038076346
 H          0.1872123566       -1.9878352017        0.2945816686
 C          0.2261466917       -0.4708517236        1.8027454831
 C         -0.7630815403       -1.1585083749        2.6925439192
 C          0.7057048547       -1.3711644154        2.9001529129
 H          1.1783171822       -0.9264580898        3.7631675071
 H          1.1306612063       -2.3213013801        2.6097629946
 H         -1.3065090049       -0.5655105320        3.4136500948
 H         -1.3288106742       -1.9740417342        2.2682004898
 H          0.3779027982        0.5948117585        1.9342870150
