  62
        -98.94395624
 C         -1.9088857409        1.2500626554       -0.3865194348
 C         -1.9336660126        0.2212623126        0.5865616956
 C         -3.2668307783       -0.2802340371        0.9443537484
 C         -4.3616957339        0.2615553421        0.3808126145
 C         -5.7868686347       -0.1345300094        0.6563705609
 C         -6.2657349225       -1.3428721902       -0.1601831842
 C         -5.6857008891       -2.6910431786        0.2699854357
 H         -5.8335739816       -2.8235773061        1.3421986010
 H         -6.2656679051       -3.4652345924       -0.2364240738
 C         -4.2018094413       -2.8819808491       -0.0745260286
 H         -4.0545386110       -3.8693935350       -0.5180572904
 H         -3.9053359996       -2.1476382192       -0.8272732226
 C         -3.2544471018       -2.7760187772        1.1206568721
 H         -3.4535209550       -3.5923520263        1.8185904647
 H         -2.2297674519       -2.8870812341        0.7560541080
 C         -3.3468564899       -1.4470158619        1.8817307119
 H         -2.4972995743       -1.3847734938        2.5658088834
 H         -4.2678259591       -1.4092217048        2.4629131374
 H         -7.3527542015       -1.3919193979       -0.0629153034
 H         -6.0349628170       -1.1666088228       -1.2135224635
 H         -5.9125644880       -0.3395971028        1.7197908530
 H         -6.4057955411        0.7257328430        0.3923480117
 O         -4.2955546278        1.2762881109       -0.5224399956
 C         -3.0734389944        1.7759485118       -0.9447630076
 O         -3.1548805002        2.6752663267       -1.8068603509
 O         -0.9043364933       -0.2563818160        1.1261431204
 C         -0.5840953202        1.8213643249       -0.8526397655
 C          0.3160850782        0.7443576974       -1.4104776198
 C         -0.2251044399       -0.3526997257       -2.0734614833
 C          0.5858208849       -1.3558307912       -2.5706601592
 C          1.9609890627       -1.2804397631       -2.4353642067
 C          2.5142448882       -0.1771494997       -1.8027749428
 C          1.6969722322        0.8253380533       -1.2953990949
 H          2.1465164767        1.6722622264       -0.7995661706
 N          3.9204161196       -0.1052649352       -1.6652648577
 S          4.5789532477       -1.1154577162       -0.4986469544
 O          6.0053860705       -0.8857179156       -0.5344327956
 O          4.1369514037       -2.4618588672       -0.7516968774
 C          3.9043980993       -0.4990375922        1.0323500029
 C          2.5895958998       -0.7845702190        1.3409588776
 C          2.0254743878       -0.2091474980        2.4686416231
 C          2.7849694976        0.6321152219        3.2669561701
 C          4.1083909716        0.9013374331        2.9493142379
 C          4.6729062633        0.3405565690        1.8154497827
 H          5.6936965019        0.5301350363        1.5245221887
 H          4.6959009888        1.5536080060        3.5755415927
 H          2.3400882287        1.0823046150        4.1408227723
 H          0.9874214958       -0.4040554740        2.6860247921
 H          2.0156300692       -1.4394963373        0.7057844200
 H          4.2559014054        0.8350272626       -1.5034686489
 H          2.6082787792       -2.0629514489       -2.7957401653
 H          0.1426689614       -2.2055748874       -3.0681291632
 H         -1.2988765416       -0.4196446525       -2.1849165075
 H         -0.8244897248        2.5211580208       -1.6671818654
 C          0.0681692266        2.5937560456        0.2789930281
 C          0.8557702947        3.8387495289        0.0034500729
 C         -0.4903358655        3.9319110448        0.6550940997
 H         -0.5435383050        4.1948011469        1.7006694336
 H         -1.3187676739        4.3033993944        0.0689869026
 H          1.7285655656        4.0409957961        0.6064131987
 H          0.9404184022        4.1644731629       -1.0226844499
 H          0.4009214650        1.9459367956        1.0821074112
