  62
        -98.93355448
 C         -2.0607692765       -1.0200612472       -0.3222189195
 C         -2.3753576081        0.2277703806        0.2710696908
 C         -3.7479526852        0.3563632676        0.7848339717
 C         -4.6026701555       -0.6776503524        0.6988688269
 C         -6.0251542488       -0.6981012251        1.1887147396
 C         -7.0334201451       -0.1006424885        0.1976363721
 C         -6.9838698892        1.4213060637        0.0566775355
 H         -7.0428459831        1.8789660441        1.0446710435
 H         -7.8771672369        1.7210174220       -0.4949915592
 C         -5.7472353876        1.9494781423       -0.6839936190
 H         -6.0540656065        2.6983470239       -1.4177580258
 H         -5.2772199540        1.1336695265       -1.2381344139
 C         -4.6987312578        2.6022810017        0.2169582486
 H         -5.1173903194        3.5010692006        0.6753755590
 H         -3.8526201384        2.9050364011       -0.4054399947
 C         -4.1651219092        1.6893984214        1.3286969117
 H         -4.9170398955        1.5656866903        2.1077173179
 H         -3.2812730132        2.1614291135        1.7649206896
 H         -8.0322642033       -0.3795809670        0.5410340642
 H         -6.8773298180       -0.5620739292       -0.7802076707
 H         -6.2827194904       -1.7468042343        1.3515316226
 H         -6.0929607175       -0.1713261835        2.1408727642
 O         -4.2495047981       -1.8714603048        0.1519451027
 C         -2.9883026788       -2.0631360472       -0.3836000627
 O         -2.8099837008       -3.1966314296       -0.8753230423
 H          0.9745215540        0.9704797843       -0.5358524935
 C          1.1204807098        0.1597402867        0.1531309328
 C          0.3824800084       -1.0107064080        0.0728310912
 C          0.6014389717       -1.9897480470        1.0440525522
 C          1.5218527172       -1.8087055041        2.0568748611
 C          2.2746511585       -0.6486546457        2.1129916271
 C          2.0677113832        0.3334161877        1.1548967126
 N          2.8293021710        1.5231650636        1.1612847955
 S          3.8814013529        1.7346641366       -0.1221298893
 O          4.6631998690        2.9058575447        0.2046423855
 O          3.1445633015        1.7698530832       -1.3570035716
 C          4.9199588894        0.2832311814       -0.0751008772
 C          6.1403674231        0.3505698130        0.5680156370
 C          6.9120440618       -0.7961396155        0.6658273945
 C          6.4460387225       -1.9882419503        0.1324164724
 C          5.2164981092       -2.0410499878       -0.5062669733
 C          4.4430446369       -0.8959818414       -0.6132215800
 H          3.4841931440       -0.9013996905       -1.1063869579
 H          4.8527316780       -2.9679143737       -0.9197741178
 H          7.0442577367       -2.8820684959        0.2130238719
 H          7.8699793261       -0.7575281284        1.1590114985
 H          6.4627410651        1.2994434028        0.9655772664
 H          3.3261054220        1.6805028629        2.0272232308
 H          3.0043832264       -0.5006835660        2.8950331816
 H          1.6627782616       -2.5785106979        2.8000687128
 H          0.0180407366       -2.8996505020        1.0007881474
 C         -0.6945373593       -1.3058955008       -0.9394278143
 H         -0.6855744274       -2.3974819123       -1.0864147241
 C         -0.6316635019       -0.7198281544       -2.3446395618
 C         -0.6112836741        0.7394108947       -2.6827723161
 C          0.5724528752       -0.1223034904       -3.0076865707
 H          0.7474380118       -0.3700861326       -4.0446861134
 H          1.4773915577        0.0272610911       -2.4410372446
 H         -0.5387368539        1.4509298442       -1.8759022687
 H         -1.2420151064        1.0776933172       -3.4933329270
 H         -1.2634225391       -1.3198909395       -2.9973070586
 O         -1.5745732813        1.1898468977        0.3792890378
