  62
        -98.94124107
 C         -1.7673925834       -1.3249016550       -0.1044599432
 C         -0.8376563425       -1.7334665890       -1.0916405726
 C          0.2970450376       -2.5709198837       -0.6591363699
 C          0.3789271350       -2.9195203655        0.6380843658
 C          1.4718688567       -3.6875814388        1.3323424987
 C          2.7200411567       -2.8246156146        1.5719485068
 C          3.1870354594       -2.0217410321        0.3606967975
 H          2.3937192514       -1.3304726871        0.0708781506
 H          4.0345699892       -1.4088433382        0.6807470501
 C          3.6277590812       -2.8449465844       -0.8479067647
 H          4.0367069600       -2.1434915030       -1.5793088675
 H          4.4330810378       -3.5178894625       -0.5456628580
 C          2.5366455047       -3.6676252595       -1.5389218895
 H          2.3351000132       -4.5894554836       -0.9998250828
 H          2.9239256427       -3.9604371691       -2.5190365063
 C          1.2363145052       -2.9123702724       -1.7911070956
 H          0.6342212501       -3.4822474243       -2.5090621380
 H          1.4672976669       -1.9661800703       -2.2918868422
 H          3.5264227264       -3.4727985831        1.9207890392
 H          2.4883788309       -2.1080477494        2.3652241979
 H          1.0722542098       -3.9945178100        2.3016959629
 H          1.7222630179       -4.5854731930        0.7752599570
 O         -0.5671913022       -2.5517984608        1.5456492719
 C         -1.6280941444       -1.7217208469        1.2266364014
 O         -2.3535436491       -1.4421200786        2.2014041902
 O         -0.9372327199       -1.3919652309       -2.3026547673
 C         -2.8431824842       -0.3530504564       -0.5518403515
 C         -2.3667708196        1.0778429853       -0.4117875569
 C         -2.8115005234        2.0670550138       -1.2830280756
 C         -2.3399595819        3.3628053013       -1.1773405837
 C         -1.3848267403        3.6915283337       -0.2306790038
 C         -0.9326780722        2.7112703043        0.6432668430
 C         -1.4527170928        1.4269285020        0.5696280509
 H         -1.1053775656        0.6899358837        1.2764468251
 N          0.0720716517        2.9783926215        1.5931611626
 S          1.4225627618        1.9823620081        1.5966382376
 O          1.0758056313        0.6592440645        2.0437876260
 O          2.3949857010        2.6946799815        2.3974076039
 C          1.9489650000        1.9556666524       -0.1065782453
 C          1.3565495332        1.0663555050       -0.9798215903
 C          1.6997440638        1.1109466590       -2.3215961701
 C          2.6350187223        2.0330323820       -2.7645117221
 C          3.2299873313        2.9141490228       -1.8735362614
 C          2.8788451297        2.8838469607       -0.5336680270
 H          3.3143787608        3.5502721264        0.1932005559
 H          3.9601711247        3.6274645630       -2.2203369301
 H          2.8998624056        2.0630878297       -3.8096019919
 H          1.2180958478        0.4265727636       -3.0032366850
 H          0.6352913777        0.3540178463       -0.6110268730
 H          0.3638691081        3.9456333781        1.6207955265
 H         -0.9896114001        4.6940153426       -0.1702205121
 H         -2.6980097026        4.1208681617       -1.8566454198
 H         -3.5218356464        1.8123025559       -2.0543241796
 H         -2.9842776775       -0.5444465343       -1.6254965886
 C         -4.1770652042       -0.5340862175        0.1448673344
 C         -5.4487764117       -0.2286249703       -0.5862747007
 C         -5.0831725402       -1.6492016460       -0.2800318770
 H         -5.6339796561       -2.1797562151        0.4816311311
 H         -4.7509238387       -2.2772139555       -1.0939401687
 H         -6.2593445494        0.2239383001       -0.0363669253
 H         -5.3777633060        0.0951367745       -1.6132574763
 H         -4.1370445016       -0.3083465927        1.2029383142
