  62
        -98.94366029
 C         -1.6751219125       -0.5399612256       -0.3186131204
 C         -2.9157110550       -1.0810610898       -0.7315864006
 C         -4.0819613995       -0.7050997033        0.0784288349
 C         -3.9081376588        0.0870549608        1.1523877199
 C         -5.0137248849        0.5853655364        2.0366624422
 C         -5.5525063224        1.9363481628        1.5456216752
 C         -5.8813231131        1.9638144798        0.0529987100
 H         -6.2807900373        2.9545590455       -0.1741361185
 H         -4.9568007980        1.8511607536       -0.5177631805
 C         -6.8858354488        0.8931111327       -0.3952965711
 H         -7.4268872304        0.5069332228        0.4693220183
 H         -7.6209746194        1.3570278185       -1.0563708279
 C         -6.2668217959       -0.2735256429       -1.1674753403
 H         -7.0779902066       -0.8504789740       -1.6196970278
 H         -5.6477102828        0.1128889471       -1.9810732311
 C         -5.4199009761       -1.2478077446       -0.3389072392
 H         -5.2073610409       -2.1188328510       -0.9659188134
 H         -5.9892211628       -1.5825668126        0.5307254028
 H         -6.4467207733        2.1811881539        2.1217118970
 H         -4.7994195187        2.7022066385        1.7444459304
 H         -4.6175027901        0.7072907111        3.0461099615
 H         -5.8149211542       -0.1508207267        2.0581134724
 O         -2.6969520940        0.5667652142        1.5324438225
 C         -1.5499625374        0.2732627821        0.8081742035
 O         -0.5109636644        0.7850720667        1.2631189228
 O         -3.0405943274       -1.8463205026       -1.7260132100
 C         -0.4249552133       -0.8807717104       -1.1102371977
 C          0.5526913663       -1.6010211357       -0.2157706021
 C          0.1350604322       -2.7565554725        0.4409285163
 C          0.9870303715       -3.4282655395        1.2949639028
 C          2.2721745088       -2.9627088668        1.5145755549
 C          2.6999562346       -1.8127421574        0.8625047494
 C          1.8434849794       -1.1467044869       -0.0045488840
 H          2.1950452209       -0.2647669972       -0.5100128472
 N          3.9758641664       -1.2940926172        1.1016239540
 S          4.7865313826       -0.3415114754        0.0037797388
 O          4.6680386752       -0.8534035978       -1.3420437428
 O          6.1332149566       -0.2662569013        0.5296776014
 C          4.0176579769        1.2601556968        0.1198035384
 C          3.8288027894        1.9936805514       -1.0347507557
 C          3.2408307899        3.2450357924       -0.9469793715
 C          2.8567481613        3.7400606757        0.2895762177
 C          3.0596954366        2.9941037662        1.4401831506
 C          3.6476415267        1.7423111024        1.3588542148
 H          3.8095528567        1.1348001647        2.2335219393
 H          2.7533368453        3.3799986607        2.3990471153
 H          2.3925702596        4.7115169408        0.3565577534
 H          3.0802837260        3.8265745551       -1.8410218984
 H          4.1332418111        1.5637204437       -1.9761579549
 H          4.5853008428       -1.8482931058        1.6826198172
 H          2.9353718088       -3.4809600507        2.1901703188
 H          0.6498195323       -4.3226100624        1.7973005114
 H         -0.8714273003       -3.1162528162        0.2750256991
 H         -0.7544413286       -1.5799961424       -1.8928870307
 C          0.1451077111        0.3574457699       -1.7686892333
 C          0.9974497338        0.2294359745       -2.9943785429
 C         -0.3896171898        0.7861250444       -3.1009082932
 H         -0.5086008018        1.8417532443       -3.2929193315
 H         -1.1553816339        0.1711388851       -3.5508873212
 H          1.8334835244        0.9014204658       -3.1135053779
 H          1.1804975797       -0.7645730972       -3.3738522952
 H          0.3903867801        1.1363403039       -1.0548193475
