  62
        -98.93525247
 C          2.4307096543        0.8215090362        0.9982566903
 C          3.5929016754        1.0236096019        0.2131736713
 C          4.6336950371       -0.0118874194        0.3355164124
 C          4.4306805120       -1.0710825080        1.1381824891
 C          5.3811755716       -2.2208341861        1.3026313381
 C          5.0737242679       -3.3448958889        0.3034831159
 C          4.9148943865       -2.8636117325       -1.1388459589
 H          4.7325481983       -3.7452309304       -1.7573683813
 H          4.0239423867       -2.2347894622       -1.2088027620
 C          6.1240048384       -2.0939435206       -1.6886586537
 H          7.0023810414       -2.2968181247       -1.0748972165
 H          6.3410271767       -2.4569115273       -2.6955050753
 C          5.9181863266       -0.5818770360       -1.7950440095
 H          6.7356079806       -0.1687229511       -2.3919635048
 H          4.9871536305       -0.3762542425       -2.3293319303
 C          5.8904672499        0.1829422476       -0.4657902000
 H          6.7695348518       -0.0775969197        0.1269785821
 H          5.9349819865        1.2510882764       -0.6977982382
 H          5.8762976687       -4.0828522080        0.3562985669
 H          4.1433589092       -3.8319190490        0.6051451283
 H          6.4002392252       -1.8654174683        1.1629370449
 H          5.2771026642       -2.6101566277        2.3168137121
 O          3.2962709046       -1.2382511204        1.8661549254
 C          2.2752066614       -0.3068890329        1.8079348226
 O          1.2899077993       -0.5822280709        2.5235977429
 O          3.7744938417        2.0045904855       -0.5512899914
 C          1.2531513148        1.7831024603        1.0075619352
 C          0.2637407189        1.3953221566       -0.0614107304
 C          0.6609651275        1.2320627176       -1.3849776159
 C         -0.2556785087        0.8516414397       -2.3477676818
 C         -1.5805836781        0.6268033100       -2.0154731154
 C         -1.9852108648        0.7766445974       -0.6960680528
 C         -1.0618311309        1.1599813422        0.2696903992
 H         -1.3748148273        1.2587922492        1.3005428029
 N         -3.3336288263        0.5708840631       -0.3437693155
 S         -4.1028684095       -0.8083829563       -0.9477067949
 O         -3.3202944464       -1.9881657250       -0.6510367766
 O         -4.4093418490       -0.5885499430       -2.3386047204
 C         -5.6033945871       -0.7889522363        0.0118298526
 C         -5.6875619733       -1.5603020844        1.1552359329
 C         -6.8494416323       -1.5145039023        1.9098078023
 C         -7.8990059131       -0.6999684645        1.5120516430
 C         -7.7989991874        0.0686742500        0.3617690566
 C         -6.6410716383        0.0265266158       -0.3981881607
 H         -6.5211030162        0.5986978360       -1.3031042823
 H         -8.6182547830        0.6987494770        0.0553376996
 H         -8.8013915628       -0.6662786653        2.1018274587
 H         -6.9306884148       -2.1129420423        2.8029626870
 H         -4.8497299420       -2.1846266864        1.4227973342
 H         -3.4658613970        0.6214380412        0.6581175095
 H         -2.2990025290        0.3207701289       -2.7582495358
 H          0.0636692710        0.7266148854       -3.3718459076
 H          1.6938939585        1.4049742547       -1.6475748821
 H          0.7634366515        1.6238158490        1.9815479610
 C          1.6651075115        3.2473992159        0.9469216414
 C          1.3910805415        4.1422323143       -0.2203617415
 C          0.6165979322        4.3158623929        1.0490915630
 H          0.8137049166        5.1787896380        1.6668208195
 H         -0.4152092531        3.9970990348        1.0485047125
 H          2.1453368230        4.8704397280       -0.4761965035
 H          0.8804961321        3.7282266073       -1.0753382847
 H          2.5936019387        3.4266065041        1.4786740919
