  62
        -98.93811602
 C          2.2965581531        1.3609127235       -0.0267806920
 C          2.9916478524        0.5500092807        0.9004980469
 C          3.6492198858       -0.6459853362        0.3548542938
 C          3.5419829668       -0.9087983199       -0.9604705898
 C          4.0817690199       -2.1282134607       -1.6524576816
 C          3.1551144810       -3.3337269130       -1.3940084037
 C          3.7875361429       -4.4508086179       -0.5624133674
 H          2.9834382569       -5.1245778780       -0.2584191083
 H          4.4718376066       -5.0187741516       -1.1961206820
 C          4.5632747939       -4.0056133373        0.6810798857
 H          4.7204368972       -4.8967564979        1.2923080838
 H          5.5521824816       -3.6497738834        0.3886972871
 C          3.8895645692       -2.9301889534        1.5430987774
 H          2.8089613386       -2.9398167267        1.3930287865
 H          4.0662155020       -3.1750683652        2.5924999704
 C          4.4234973086       -1.5027854501        1.3179288497
 H          4.3855703925       -0.9614567786        2.2678986991
 H          5.4705132258       -1.5489587017        1.0068457210
 H          2.8353571803       -3.7576806430       -2.3472581069
 H          2.2500833548       -2.9727674922       -0.8985032303
 H          4.1220544347       -1.9043785596       -2.7185761897
 H          5.0893749418       -2.3367853347       -1.2998843672
 O          2.8481843274       -0.1163761627       -1.8176486028
 C          2.1935791015        1.0248469657       -1.3768739209
 O          1.5795743980        1.6391430114       -2.2682621650
 H          0.1990240687        0.5785555758        1.5021263004
 C         -0.4534432287        1.2245490617        0.9263482395
 C          0.0815025926        2.3589384608        0.3260697567
 C         -0.7635204015        3.1781165675       -0.4089582722
 C         -2.1025198772        2.8537077535       -0.5506852695
 C         -2.6257235547        1.7159807465        0.0356384143
 C         -1.7897662310        0.8946959813        0.7814328385
 N         -2.3140772224       -0.2757767945        1.3754906275
 S         -2.8179672914       -1.4592623743        0.2859898518
 O         -2.7466694736       -2.7063753641        1.0172260695
 O         -2.0660147108       -1.3952678740       -0.9473725215
 C         -4.5246203087       -1.0496093069       -0.0069667744
 C         -5.3983001846       -1.1068183664        1.0615048746
 C         -6.7290787103       -0.7807138587        0.8549583048
 C         -7.1606716180       -0.4066087279       -0.4091500910
 C         -6.2713129157       -0.3575084115       -1.4718650274
 C         -4.9381640904       -0.6816581923       -1.2720404032
 H         -4.2080265087       -0.6515699996       -2.0652172871
 H         -6.6084411513       -0.0665292770       -2.4537676362
 H         -8.1965911593       -0.1516786257       -0.5675883398
 H         -7.4238460304       -0.8183252415        1.6783935384
 H         -5.0204791346       -1.4073098091        2.0244077384
 H         -1.6739925114       -0.6937973305        2.0373501675
 H         -3.6660612205        1.4583599693       -0.0784314796
 H         -2.7468183781        3.4955008172       -1.1318513110
 H         -0.3712622194        4.0615869322       -0.8846683606
 C          1.5641907664        2.5917544968        0.4821442482
 H          1.7909106670        2.6412803891        1.5572680833
 C          2.0683902679        3.8531084866       -0.1827062794
 C          1.8978131575        5.1756298544        0.5014717084
 C          3.2574492396        4.5543729222        0.4000036770
 H          3.9780361098        4.9920005123       -0.2743064678
 H          3.6963321621        4.1313759290        1.2919155079
 H          1.6860880969        6.0448058689       -0.1023307211
 H          1.4131568449        5.1791339780        1.4659517662
 H          1.9892761307        3.8185206797       -1.2629101243
 O          3.0533831697        0.8111747722        2.1337477353
