  62
        -98.93944097
 C         -2.3679386125       -1.2077729015       -0.0555362088
 C         -3.4480618423       -0.8573512285        0.7904556518
 C         -4.3805268035        0.1671107397        0.2908982800
 C         -4.1516133774        0.7379328809       -0.9065031000
 C         -4.9341229785        1.7767830421       -1.6826682726
 C         -6.0374897607        2.5885912765       -1.0092114304
 C         -5.5496110685        3.5709911224        0.0552149614
 H         -4.9997600462        4.3748555833       -0.4408959456
 H         -6.4235790646        4.0142141613        0.5374110937
 C         -4.6351193823        2.9832746636        1.1272246071
 H         -4.3566862778        3.7919811397        1.8084864133
 H         -3.7129978410        2.6224738354        0.6660998305
 C         -5.2454018402        1.8607277596        1.9640004535
 H         -6.1845363038        2.2000046489        2.4051807748
 H         -4.5505360691        1.6444849347        2.7798442249
 C         -5.5033156917        0.5421477776        1.2150296974
 H         -5.5696153452       -0.2590055232        1.9567566685
 H         -6.4485997207        0.5699673344        0.6786744686
 H         -6.5196704988        3.1714668003       -1.7987271600
 H         -6.7951017252        1.9269035896       -0.5999532855
 H         -4.1873348416        2.4616672924       -2.0973739594
 H         -5.3682540208        1.2435320301       -2.5357420634
 O         -3.0874620778        0.3768840548       -1.6820530732
 C         -2.1741124971       -0.5873428948       -1.2879553897
 O         -1.2672664222       -0.7917998762       -2.1187710697
 O         -3.6345457905       -1.3879507247        1.9175811656
 C         -1.3827947869       -2.2553606306        0.4372019066
 C         -0.0734587548       -1.5653385787        0.7279439136
 C          0.0909823613       -0.9013082810        1.9407151695
 C          1.2504574892       -0.1989049671        2.2089848549
 C          2.2664458042       -0.1342048127        1.2707122749
 C          2.1041626857       -0.7776666261        0.0519094958
 C          0.9482775906       -1.5030787000       -0.2063225034
 H          0.8310296465       -1.9869543747       -1.1629651746
 N          3.1239317301       -0.7077050432       -0.9134115746
 S          3.7936289303        0.7954858166       -1.2459255621
 O          2.8573093424        1.8701402861       -1.0087207552
 O          4.3225495104        0.6860103884       -2.5883406194
 C          5.1551867743        0.9074679934       -0.1014093419
 C          5.3054828353        2.0358662832        0.6806862581
 C          6.3793363703        2.1082956615        1.5545634667
 C          7.2798416775        1.0569094315        1.6297882165
 C          7.1164414064       -0.0683909081        0.8355819759
 C          6.0460655407       -0.1464340118       -0.0409590353
 H          5.8843751323       -1.0017328703       -0.6753473467
 H          7.8183514317       -0.8843388968        0.8972634770
 H          8.1135542374        1.1149000225        2.3115817988
 H          6.5074101268        2.9826487249        2.1723325332
 H          4.5758219868        2.8253251825        0.5935846953
 H          2.8908445397       -1.1856500745       -1.7724504058
 H          3.1680026100        0.4227124284        1.4672408223
 H          1.3655165314        0.3072618788        3.1554083541
 H         -0.7115831899       -0.9322507521        2.6643946002
 H         -1.7969114988       -2.6171751916        1.3877772641
 C         -1.2643245522       -3.4236063963       -0.5185031607
 C         -0.6147625099       -4.6898993276       -0.0486931069
 C         -2.0941482381       -4.6484466390       -0.2826251880
 H         -2.4971301854       -5.1687250459       -1.1386474347
 H         -2.7487839837       -4.6502095676        0.5764134381
 H          0.0004302072       -5.2426623803       -0.7420471599
 H         -0.2634103119       -4.7178863066        0.9715247966
 H         -1.1104729080       -3.1243844365       -1.5482166762
