  62
        -98.94494733
 C         -1.8800486492        0.7114122726        0.1604282417
 C         -2.4541195550        0.0935856309       -0.9755891883
 C         -3.5266271335       -0.8737996874       -0.7089499975
 C         -3.8631669920       -1.1467791169        0.5651705588
 C         -4.9707498325       -2.0710252623        0.9788802450
 C         -6.2947174617       -1.3114350922        1.1429299151
 C         -6.6394525868       -0.4074462580       -0.0407122377
 H         -7.6067268907        0.0525020754        0.1726902952
 H         -5.9056076103        0.3996931493       -0.0982246776
 C         -6.7044810337       -1.1300165255       -1.3935597662
 H         -6.8068426149       -2.2042501710       -1.2353605101
 H         -7.5964611026       -0.7947638403       -1.9269557744
 C         -5.5105941299       -0.8648923049       -2.3125457280
 H         -5.7586997195       -1.2401223926       -3.3089891324
 H         -5.3479773913        0.2123415353       -2.3996810635
 C         -4.1881474407       -1.5197047447       -1.8939135830
 H         -3.4857762432       -1.4108850776       -2.7257370446
 H         -4.3453047084       -2.5855710381       -1.7155281438
 H         -7.0938049276       -2.0398789009        1.2920707972
 H         -6.2285266897       -0.6911929711        2.0398015294
 H         -5.0803416231       -2.8565261303        0.2335378136
 H         -4.7011272985       -2.5246977831        1.9341961526
 O         -3.2546628373       -0.5704175892        1.6327206751
 C         -2.2561642169        0.3785573973        1.4620981366
 O         -1.7937173739        0.8341590734        2.5240536746
 O         -2.0815036746        0.3347571313       -2.1562714123
 C         -0.7876779480        1.7462544855       -0.0400027414
 C          0.4959243291        1.2786305966        0.6007656662
 C          1.2749670805        2.0751675582        1.4287841596
 C          2.4386615605        1.5762297162        1.9897841181
 C          2.8557999291        0.2845588356        1.7302968467
 C          2.0953835838       -0.5137095935        0.8839208792
 C          0.9321465127       -0.0116576848        0.3222643549
 H          0.3393039680       -0.6369057981       -0.3340803514
 N          2.5216655818       -1.8208744559        0.5951195546
 S          4.1422329337       -2.0581607878        0.2519527256
 O          4.1814571540       -3.2210707499       -0.6070293645
 O          4.8888289984       -2.1609716772        1.4811038098
 C          4.6514015019       -0.6001674238       -0.6422421397
 C          5.6520917052        0.2045150058       -0.1371093315
 C          6.0080970809        1.3484703708       -0.8335340313
 C          5.3573194600        1.6682562069       -2.0147089274
 C          4.3562519288        0.8473666236       -2.5115022728
 C          3.9979531357       -0.2986180350       -1.8207659883
 H          3.2260394303       -0.9585924718       -2.1837039717
 H          3.8504170259        1.0966251903       -3.4305734291
 H          5.6307383576        2.5618060387       -2.5532531915
 H          6.7873673277        1.9874115416       -0.4507130078
 H          6.1289892536       -0.0797117375        0.7866907499
 H          1.9287435126       -2.3139832741       -0.0555391120
 H          3.7478689126       -0.1240097223        2.1765067358
 H          3.0271007901        2.2019944488        2.6429996844
 H          0.9663436224        3.0840970691        1.6460966091
 H         -0.6271979644        1.7918517549       -1.1276384076
 C         -1.2508994143        3.1051392180        0.4405812060
 C         -0.7076681687        4.3536107942       -0.1856752454
 C         -2.1191566230        3.9315332092       -0.4587051668
 H         -2.9248820206        4.4995767381       -0.0183114321
 H         -2.3542938884        3.5249925743       -1.4317080035
 H         -0.5454456333        5.2167270143        0.4419909777
 H          0.0160828611        4.2409037003       -0.9783629465
 H         -1.4762901206        3.1167905758        1.5009876203
