  62
        -98.93213419
 C         -2.2499285708       -1.5547206494        0.2291878988
 C         -2.5461098706       -0.5718595488       -0.7428935006
 C         -3.4985577504        0.4870193211       -0.3468116200
 C         -4.0188182905        0.4772849305        0.8926805900
 C         -4.9841662003        1.4474870802        1.5256626106
 C         -6.1700397602        1.9087155910        0.6645224708
 C         -6.0676483499        3.3687972912        0.2197517517
 H         -7.0725015999        3.7412139515        0.0086821019
 H         -5.6697116999        3.9570233707        1.0492821821
 C         -5.2151305798        3.6118182319       -1.0245111181
 H         -5.7439871699        3.2386434025       -1.9041926684
 H         -5.1059864396        4.6921801319       -1.1449625275
 C         -3.8220756099        2.9796575516       -0.9966810085
 H         -3.3687754800        3.0929348909       -0.0120644184
 H         -3.1909462898        3.5289579419       -1.6990759581
 C         -3.8105729902        1.5011533818       -1.4138164794
 H         -4.7627928902        1.2390364923       -1.8838062896
 H         -3.0438929902        1.3432696922       -2.1787984794
 H         -6.2777996303        1.2550833715       -0.1994886196
 H         -7.0756754103        1.8035905908        1.2639876907
 H         -5.3509049705        0.9366181598        2.4189351502
 H         -4.4194241202        2.3157072399        1.8752155211
 O         -3.6848921407       -0.4766941702        1.8081792394
 C         -2.8048893308       -1.4975717001        1.5105823088
 O         -2.6038562710       -2.2907598007        2.4512073184
 H          0.0699380594       -0.8105882389       -1.3364043306
 C          0.6622615993       -1.2352916895       -0.5388365008
 C          0.1179771291       -2.2520058399        0.2351434985
 C          0.8807529489       -2.7847393606        1.2666987382
 C          2.1577322290       -2.3098257510        1.5132602886
 C          2.6963848092       -1.2973285306        0.7396478492
 C          1.9373566194       -0.7531181198       -0.2886766305
 N          2.4732357696        0.2837735405       -1.0776644298
 S          3.0107885898        1.6490520499       -0.2575489190
 O          2.3016466798        1.8322427793        0.9888326311
 O          2.9241027700        2.7323356006       -1.2126604083
 C          4.7276201497        1.2972878695        0.0596266009
 C          5.2208371797        1.3718606086        1.3473904010
 C          6.5632233996        1.1037590282        1.5672403009
 C          7.3836216196        0.7682677587        0.5011449407
 C          6.8729127196        0.6995841596       -0.7866941394
 C          5.5325668697        0.9678660900       -1.0135508593
 H          5.0964196597        0.9290479707       -1.9977172293
 H          7.5141758796        0.4384803400       -1.6130437795
 H          8.4273341696        0.5592521784        0.6750475306
 H          6.9616641496        1.1564418875        2.5677332709
 H          4.5429862397        1.6294380082        2.1456677111
 H          1.8600956397        0.5534230411       -1.8348833197
 H          3.6880114093       -0.9203881509        0.9308001495
 H          2.7393223089       -2.7314508016        2.3188108583
 H          0.4582270788       -3.5603974809        1.8886073777
 C         -1.2946851710       -2.7148077095       -0.0154992318
 H         -1.5447816912       -3.4544522899        0.7597664877
 C         -1.4981465610       -3.3715654986       -1.3763431423
 C         -0.3794284910       -3.6257500082       -2.3399778924
 C         -1.0041060913       -4.7697207385       -1.6043912631
 H         -1.6322782614       -5.4595242581       -2.1473794736
 H         -0.4307259614       -5.2255306991       -0.8110753734
 H         -0.5901719410       -3.5076751975       -3.3922219623
 H          0.6180392690       -3.3259752485       -2.0588372121
 H         -2.4564470710       -3.1220209881       -1.8173015122
 O         -2.0508839005       -0.5547283282       -1.9016931405
