  62
        -98.94437568
 C          1.9147197060        1.0581063706       -0.2275664015
 C          2.4345509941       -0.0906767500       -0.8707168959
 C          3.8924682420       -0.2633580639       -0.7861128295
 C          4.6320748887        0.6647625058       -0.1519311021
 C          6.1166906420        0.5856018028        0.0529603724
 C          6.4571604694       -0.1057919861        1.3806798220
 C          5.7197298161       -1.4275540049        1.5955752582
 H          6.0606069738       -1.8390004853        2.5481157492
 H          4.6503936959       -1.2280141593        1.6956809065
 C          5.9372694606       -2.4638892152        0.4842672210
 H          6.1282630231       -3.4357194524        0.9442991476
 H          6.8212651156       -2.2024710098       -0.0985476291
 C          4.7451250072       -2.6441796792       -0.4576450530
 H          4.9191635591       -3.5409300391       -1.0584459703
 H          3.8369608934       -2.8138930069        0.1266239795
 C          4.4813198826       -1.4870103296       -1.4295216702
 H          5.3998099186       -1.2389526052       -1.9654746567
 H          3.7393545471       -1.8278706017       -2.1577507770
 H          7.5344010876       -0.2784822761        1.4135242595
 H          6.1958905979        0.5689989627        2.1990991650
 H          6.5162883890        1.6009708826        0.0692635313
 H          6.5644529670        0.0428248531       -0.7771134437
 O          4.0980042853        1.7709801498        0.4261731537
 C          2.7300552905        1.9882909820        0.4166279358
 O          2.3678969147        3.0257961309        1.0073948129
 O          1.7218452870       -0.9298570975       -1.4808552748
 C          0.4190413695        1.3199040632       -0.2405094094
 C         -0.3188105501        0.1292781451        0.3209201862
 C          0.1044236750       -0.4088817206        1.5344260347
 C         -0.5227522077       -1.5125551074        2.0768583115
 C         -1.5992574570       -2.0949692644        1.4300898408
 C         -2.0390690501       -1.5588643921        0.2271405252
 C         -1.4043826966       -0.4490151349       -0.3169675606
 H         -1.7605155018       -0.0673962510       -1.2586782831
 N         -3.1275056109       -2.1299546126       -0.4534115307
 S         -4.3308323080       -1.1361778411       -1.0535008291
 O         -5.4689496821       -2.0104741016       -1.2338094259
 O         -3.8727065355       -0.4411561918       -2.2284046501
 C         -4.6433244643        0.0145995670        0.2724307532
 C         -5.3117845151       -0.4473993896        1.3896293429
 C         -5.5019369299        0.4107946176        2.4599259162
 C         -5.0154764592        1.7080661819        2.3985083951
 C         -4.3496330068        2.1571217912        1.2688519354
 C         -4.1587370716        1.3036621633        0.1934933310
 H         -3.6480084964        1.6152040802       -0.7026383883
 H         -3.9746380436        3.1672248825        1.2220209691
 H         -5.1581816997        2.3746641187        3.2344068037
 H         -6.0239703044        0.0668494997        3.3382456475
 H         -5.6841707119       -1.4590024543        1.3951599922
 H         -3.5238516127       -2.9386078126        0.0030215371
 H         -2.0860610043       -2.9633592284        1.8472181692
 H         -0.1739206908       -1.9237214437        3.0121934540
 H          0.9461194418        0.0460251660        2.0394348948
 H          0.2551494019        2.1754366029        0.4311649720
 C         -0.0253078923        1.7063070744       -1.6357901300
 C         -1.1626462714        2.6615872757       -1.8303512100
 C          0.2408451777        3.0975609198       -2.1236658439
 H          0.5378100691        3.2351402667       -3.1525496264
 H          0.7189354984        3.7797631033       -1.4355469652
 H         -1.8381839205        2.4980848853       -2.6573242579
 H         -1.6317686182        3.0623740712       -0.9443589988
 H          0.0932397027        0.8999644650       -2.3511079467
