  62
        -98.94126802
 C         -1.8127218901       -0.9347643704        0.7217244687
 C         -2.0642637103        0.4569420295        0.8597053497
 C         -3.4522530604        0.8961439595        0.6730557200
 C         -4.3981804903       -0.0220083605        0.4054437494
 C         -5.8458600803        0.2824604195        0.1531202796
 C         -6.1166162504        0.5000825505       -1.3420310202
 C         -5.1426126105        1.4705411111       -2.0101662996
 H         -4.1431096404        1.0293662413       -2.0093907799
 H         -5.4482544905        1.5707141518       -3.0539401595
 C         -5.0836478107        2.8593333607       -1.3586983486
 H         -5.9664484507        3.0146543401       -0.7374280985
 H         -5.1045314608        3.6158789612       -2.1459595581
 C         -3.8261094307        3.1171356203       -0.5263077484
 H         -2.9396288107        2.8701881708       -1.1159267886
 H         -3.7823766608        4.1858410701       -0.3003529277
 C         -3.7422323106        2.3645326493        0.8076787710
 H         -2.9055516306        2.7836732690        1.3739206813
 H         -4.6590435306        2.5249042688        1.3787527712
 H         -7.1376943904        0.8681892705       -1.4579929100
 H         -6.0429160502       -0.4636688291       -1.8511977509
 H         -6.4406544002       -0.5635436708        0.5017072190
 H         -6.1281586404        1.1693024691        0.7172335502
 O         -4.1257987501       -1.3443360303        0.2888275584
 C         -2.8344278700       -1.8364504303        0.4227865181
 O         -2.7599273799       -3.0699121601        0.2539576372
 H          1.8981470997       -0.1488886895        0.1844317992
 C          1.5513065598       -0.8308579590       -0.5765765713
 C          0.3711917799       -1.5330139193       -0.3814578818
 C         -0.0714537900       -2.3920293387       -1.3814664724
 C          0.6578636100       -2.5383277477       -2.5472283325
 C          1.8478244099       -1.8547284175       -2.7278371820
 C          2.3002293898       -0.9966485481       -1.7329928714
 N          3.4973228797       -0.2830299878       -1.8818320710
 S          4.5086453797       -0.0707907686       -0.5638399508
 O          5.8088588097        0.1864903019       -1.1451306007
 O          4.4296973199       -1.1853572593        0.3508790884
 C          3.9208514295        1.4160303507        0.2172359502
 C          3.6685961196        1.4206116897        1.5745650802
 C          3.2280213994        2.5910364893        2.1713524511
 C          3.0500744593        3.7311947898        1.4036135719
 C          3.3122392592        3.7115816608        0.0420806619
 C          3.7534425494        2.5446290713       -0.5601689890
 H          3.9687342094        2.4912751520       -1.6143251090
 H          3.1710741491        4.6011820912       -0.5504538775
 H          2.7028564092        4.6394675294        1.8702620525
 H          3.0211519394        2.6072251485        3.2295112711
 H          3.8133815097        0.5091521194        2.1336890796
 H          4.0142651497       -0.4875703072       -2.7245180611
 H          2.4228400199       -1.9839534067       -3.6323432821
 H          0.3033288701       -3.2045442872       -3.3194430630
 H         -0.9879905899       -2.9425180689       -1.2344589828
 C         -0.3747073101       -1.3769314703        0.9224196483
 H          0.1018228498       -0.5530394906        1.4714397089
 C         -0.2243432899       -2.6443862609        1.7438664974
 C          1.1266199001       -2.9870925011        2.2949639172
 C          0.0311639601       -2.5424163019        3.2160349975
 H         -0.4215880898       -3.2732668124        3.8692584370
 H          0.0954824100       -1.5531952422        3.6453275282
 H          1.9419908301       -2.3081448408        2.0907672576
 H          1.4236707003       -4.0246839611        2.3139898764
 H         -0.8469067098       -3.4584937307        1.3966456169
 O         -1.1633656204        1.2933851994        1.1364024402
