  62
        -98.94152776
 C         -0.7093698846       -1.5023343636       -0.0093909667
 C         -1.7428588665       -1.3642995118        0.9444718719
 C         -2.6383007681       -0.2120109635        0.7677667753
 C         -2.4127685966        0.6407836561       -0.2482096904
 C         -3.2761821242        1.8194531181       -0.5996144333
 C         -4.5500491852        1.3437155061       -1.3271029592
 C         -5.8472493413        1.5981109713       -0.5593029770
 H         -6.1001362964        2.6581465882       -0.6290450633
 H         -6.6391430125        1.0364441349       -1.0592344703
 C         -5.8286195288        1.2187871610        0.9245828066
 H         -5.3273547481        2.0000859356        1.4982034691
 H         -6.8669813070        1.2031363514        1.2626324549
 C         -5.1803388651       -0.1295318987        1.2641762600
 H         -5.2106066074       -0.7992227930        0.4044453668
 H         -5.7689913051       -0.5997632780        2.0545643470
 C         -3.7330298297       -0.0334176494        1.7830261084
 H         -3.5918288795        0.9169290469        2.3067219907
 H         -3.5696762128       -0.8327855083        2.5124059947
 H         -4.6236830416        1.8411903762       -2.2951483473
 H         -4.4490297223        0.2754386032       -1.5286160354
 H         -3.5316475949        2.3681624748        0.3045129481
 H         -2.6897792957        2.4705209959       -1.2474095290
 O         -1.3997922249        0.4822043249       -1.1380910710
 C         -0.5149974422       -0.5809588110       -1.0381986149
 O          0.3773786180       -0.5931625819       -1.9052782897
 H          1.1066083947       -0.3835541124        1.2807291476
 C          1.9291284836       -0.9553786614        0.8769497057
 C          1.6847901094       -2.1614223119        0.2342374736
 C          2.7689324831       -2.8819980981       -0.2540398838
 C          4.0569171570       -2.3971494807       -0.1103619712
 C          4.2921315455       -1.1809613207        0.5042921731
 C          3.2146504242       -0.4540657217        0.9977759188
 N          3.4076393421        0.7888479492        1.6229810521
 S          2.3138607590        2.0261147854        1.4027878405
 O          3.0404949426        3.2114004671        1.8138972477
 O          1.0977292037        1.7662762544        2.1348716630
 C          1.9632606668        2.1519554826       -0.3422724304
 C          2.9170486876        1.8114459492       -1.2792689191
 C          2.6281156884        1.9871954592       -2.6223443157
 C          1.4056229123        2.5132807239       -3.0051219057
 C          0.4636466502        2.8626889143       -2.0522153369
 C          0.7417660493        2.6777868873       -0.7084794242
 H          0.0277952504        2.9152060030        0.0653484920
 H         -0.4903604009        3.2666589098       -2.3517057366
 H          1.1811879602        2.6443189410       -4.0519353184
 H          3.3564220321        1.7064269621       -3.3659895591
 H          3.8633682518        1.4017029675       -0.9665426420
 H          4.3578236289        1.1300808546        1.6215848834
 H          5.2956035084       -0.7961426372        0.6049171240
 H          4.8886838459       -2.9685564030       -0.4929379099
 H          2.6033471999       -3.8246618616       -0.7493505971
 C          0.2638905327       -2.6570498540        0.1175663155
 H         -0.0005115685       -3.1627485125        1.0592471635
 C          0.0733721208       -3.6325848345       -1.0280225428
 C          0.2488460392       -5.1060184089       -0.8156878843
 C         -1.1222306322       -4.5359211931       -1.0146087840
 H         -1.6349577498       -4.7286532148       -1.9449818271
 H         -1.7793874583       -4.4709208660       -0.1594698254
 H          0.6766951682       -5.6945549793       -1.6133512121
 H          0.5149341545       -5.4421159387        0.1752259587
 H          0.3719756870       -3.2114243661       -1.9814864309
 O         -1.9075930379       -2.1687706754        1.9035437789
