  62
        -98.93749837
 C          0.7966978765        1.6907447940        0.7298082430
 C          1.4187008773        1.4841537169       -0.5243309451
 C          2.5623071426        0.5502381536       -0.5476202752
 C          2.8824361099       -0.1348463773        0.5648266636
 C          3.9852532141       -1.1340858098        0.8457204159
 C          4.8296311964       -1.7053701511       -0.2900206180
 C          4.0827503347       -2.6514671102       -1.2306622515
 H          4.7416832942       -2.8910996130       -2.0678601913
 H          3.8774798213       -3.5806075980       -0.6941228042
 C          2.7541024047       -2.1327650237       -1.7746064263
 H          2.0634731166       -1.9499767566       -0.9494289297
 H          2.3157583184       -2.9196747872       -2.3933849191
 C          2.8440201140       -0.8709471888       -2.6283875305
 H          3.5453168281       -1.0275633042       -3.4505565799
 H          1.8551575975       -0.6924727034       -3.0596073846
 C          3.2539545265        0.4029748288       -1.8730165376
 H          4.3329692801        0.4590559603       -1.7503181788
 H          2.9467440914        1.2625756035       -2.4759822503
 H          5.6360984385       -2.2760730964        0.1785196122
 H          5.3001304831       -0.9009283087       -0.8477724123
 H          4.6545785388       -0.6396344395        1.5585487211
 H          3.5114573840       -1.9565794925        1.3900134181
 O          2.1917159894        0.0321319566        1.7321100433
 C          1.1533404036        0.9367322098        1.8481198907
 O          0.6261075684        0.9660660354        2.9790892703
 H         -1.4487920323        0.2508917401        0.4756762449
 C         -1.8586164395        0.9659427364       -0.2220941715
 C         -1.4204887585        2.2836513559       -0.1704716569
 C         -1.9457329250        3.1950188834       -1.0751748123
 C         -2.8853648115        2.7857769905       -2.0063201003
 C         -3.3301480508        1.4771701331       -2.0430158092
 C         -2.8086686446        0.5559492665       -1.1402812493
 N         -3.2145472177       -0.7860079592       -1.1549238473
 S         -3.3181633713       -1.6660000852        0.2631713415
 O         -4.2423756709       -2.7353064669       -0.0514445112
 O         -3.6750510442       -0.8297574374        1.3850268888
 C         -1.7005880108       -2.3751547943        0.4894351824
 C         -0.9537593236       -2.0636457876        1.6074368038
 C          0.2849710348       -2.6625500416        1.7769964104
 C          0.7488341044       -3.5647507350        0.8330739053
 C         -0.0147565556       -3.8710179219       -0.2839647030
 C         -1.2499636343       -3.2709855640       -0.4608135766
 H         -1.8770412298       -3.4886014899       -1.3092633806
 H          0.3519397554       -4.5735033646       -1.0147242807
 H          1.7099167608       -4.0350900862        0.9706867276
 H          0.8772694702       -2.4082452191        2.6423277106
 H         -1.3396692623       -1.3567778904        2.3268852612
 H         -3.9630136654       -1.0040154609       -1.7958121287
 H         -4.0674129560        1.1650648349       -2.7670649082
 H         -3.2818789973        3.4999845958       -2.7122245864
 H         -1.6055950331        4.2175062004       -1.0670118778
 C         -0.3957000494        2.6188675311        0.8860288375
 H         -0.8363920056        2.3461246317        1.8605159235
 C         -0.0577282283        4.0987953800        0.9712381073
 C          1.2818744793        4.5550631919        1.4662950485
 C          0.8982727143        4.7722070102        0.0349124838
 H          0.6726307165        5.7793894257       -0.2846377440
 H          1.3644980849        4.1657982551       -0.7241398525
 H          2.0156584970        3.7936364630        1.6890076836
 H          1.3222498604        5.4078002431        2.1275017839
 H         -0.9119464898        4.6856399966        1.2964536726
 O          1.0582786422        2.0533778768       -1.5860068904
