  62
        -98.93228153
 C         -2.5054194732       -1.0760055525        0.3350911826
 C         -2.6384996116        0.0546220767        1.1759632102
 C         -3.4626582283        1.1572043238        0.6603310898
 C         -4.0158639853        1.0432456571       -0.5610420578
 C         -4.8179019674        2.1054384428       -1.2579254706
 C         -3.8785894071        3.1842335877       -1.8340678125
 C         -4.0327078150        4.5627427992       -1.1908537576
 H         -3.1869551830        5.1717950341       -1.5168699802
 H         -4.9424432216        5.0317222761       -1.5715278923
 C         -4.1013391193        4.5818529579        0.3392576244
 H         -3.9432897657        5.6162978495        0.6515567502
 H         -5.1062181736        4.3092492696        0.6649831939
 C         -3.0896216219        3.6874644807        1.0674100212
 H         -2.7343878148        4.2248621917        1.9490120355
 H         -2.2196789342        3.4994948963        0.4376716719
 C         -3.6607014011        2.3449392484        1.5615441757
 H         -3.1584263338        2.0741527811        2.4949759832
 H         -4.7251100015        2.4604061203        1.7836794667
 H         -4.0557359020        3.2855019306       -2.9058366751
 H         -2.8490008170        2.8386703486       -1.7186260169
 H         -5.5270373700        2.5469416492       -0.5612204132
 H         -5.3729032897        1.6181197050       -2.0597226331
 O         -3.8399858012       -0.0461097776       -1.3523637636
 C         -3.0790782800       -1.1288571197       -0.9353667971
 O         -3.0010429089       -2.0481873767       -1.7705932544
 O         -2.0903283831        0.1383632934        2.3093638777
 C         -1.6679334882       -2.2467346973        0.8222732432
 C         -0.4080075359       -2.3253551820       -0.0051966879
 C         -0.1061821738       -3.3803703192       -0.8544303484
 C          1.0607784783       -3.3636152231       -1.6000242302
 C          1.9471214361       -2.3065630464       -1.5127724829
 C          1.6599889219       -1.2499281067       -0.6568749859
 C          0.4918433374       -1.2695155203        0.0897764198
 H          0.2623087867       -0.4477451510        0.7569779368
 N          2.5498406773       -0.1612234914       -0.5645394462
 S          4.1931208978       -0.5349865466       -0.4234358127
 O          4.7077480357       -0.8311078692       -1.7367523756
 O          4.3832815809       -1.5633677407        0.5752797282
 C          4.8556607107        1.0171049000        0.1472544175
 C          5.0252694542        1.2206542096        1.5036166522
 C          5.5242761978        2.4374141710        1.9412588392
 C          5.8407923795        3.4249315972        1.0204452481
 C          5.6645747471        3.2056863024       -0.3377691414
 C          5.1671758244        1.9910397432       -0.7822794661
 H          5.0231916410        1.7718785485       -1.8273440397
 H          5.9143455457        3.9751106156       -1.0503753609
 H          6.2299957254        4.3703291025        1.3639544541
 H          5.6648624038        2.6096525129        2.9962184762
 H          4.7756777458        0.4215182035        2.1833489299
 H          2.2707872393        0.4884626094        0.1585918850
 H          2.8598990023       -2.2883769492       -2.0860652006
 H          1.2829422777       -4.1876461736       -2.2614717434
 H         -0.7868528598       -4.2107278826       -0.9418751802
 H         -1.3775683820       -1.9858847181        1.8502893455
 C         -2.4681941478       -3.5299702159        0.8561157800
 C         -2.0065168451       -4.6669798323        1.7163244336
 C         -3.2242886512       -3.8829927896        2.1004937439
 H         -4.1924982874       -4.3497569862        1.9992431021
 H         -3.1531833575       -3.2034851720        2.9372852979
 H         -2.1380633180       -5.6750254148        1.3537305496
 H         -1.1053088006       -4.5212569631        2.2926829491
 H         -2.9359787203       -3.7634706914       -0.0927567439
