  62
        -98.93681299
 C          2.6164094800       -0.4051790138        0.2135444377
 C          2.0807740874       -1.1682549047       -0.8502042637
 C          1.3778453359       -2.4173053576       -0.4809264702
 C          1.2459210952       -2.7385221208        0.8165720493
 C          0.4898117122       -3.8855144656        1.4312913223
 C         -0.9769291428       -3.4929916349        1.6850255250
 C         -1.9348610733       -3.8437863297        0.5495440877
 H         -1.9923579496       -4.9299320347        0.4462538642
 H         -2.9255229503       -3.4830541875        0.8354661115
 C         -1.5671329601       -3.2338549693       -0.8040509532
 H         -2.4606482921       -3.2404522334       -1.4324321592
 H         -1.2834988616       -2.1874998126       -0.6691508698
 C         -0.4439754157       -3.9903999209       -1.5277657694
 H         -0.2712103214       -4.9475702122       -1.0364487671
 H         -0.7610935374       -4.2172987100       -2.5484046395
 C          0.8718860741       -3.2189852783       -1.6513225016
 H          1.6650359521       -3.9148747241       -1.9506929608
 H          0.7784871296       -2.4903532199       -2.4637660813
 H         -1.0140869027       -2.4147566044        1.8649507486
 H         -1.3229760454       -3.9941763793        2.5915719478
 H          0.5591917256       -4.7770948624        0.8153275911
 H          0.9713060283       -4.0860948325        2.3907418003
 O          1.7774555211       -1.9734574248        1.8121252698
 C          2.4453872928       -0.7997994583        1.5428746665
 O          2.8601482251       -0.2001698796        2.5574642454
 H          0.6983933481        0.9694044351       -0.8047725805
 C          0.9267450670        1.8369998224       -0.2049594834
 C          2.2087269650        2.0227989177        0.2877631005
 C          2.4754200776        3.1652967632        1.0324929386
 C          1.4710544982        4.0787474353        1.3002173848
 C          0.1772677969        3.8528162656        0.8653076834
 C         -0.0955111576        2.7181868516        0.1099856083
 N         -1.3947304038        2.4236735966       -0.3364799969
 S         -1.8266482351        0.7838447478       -0.3419884590
 O         -1.2860629428        0.1240489740        0.8247678051
 O         -1.4859542450        0.2290139492       -1.6263131175
 C         -3.6004472972        0.9151057374       -0.2092226866
 C         -4.3324512404        1.1873960607       -1.3496499383
 C         -5.7075859934        1.3240323240       -1.2460026686
 C         -6.3244091436        1.1869341888       -0.0111265616
 C         -5.5770067033        0.9109611559        1.1239430403
 C         -4.2008010277        0.7752420148        1.0274364480
 H         -3.5787472085        0.5532292369        1.8799572026
 H         -6.0590236979        0.8007626420        2.0819291936
 H         -7.3948558422        1.2927457960        0.0668777127
 H         -6.2920682627        1.5355550719       -2.1267387031
 H         -3.8085697575        1.2745055627       -2.2872139170
 H         -2.1023875242        2.9988209670        0.1002879937
 H         -0.6155406532        4.5422701089        1.1127334804
 H          1.6903649295        4.9608152779        1.8824687445
 H          3.4688777804        3.3215241592        1.4252773285
 C          3.2631901985        0.9630502590        0.0546754650
 H          3.9990419987        1.0496116486        0.8678411908
 C          3.9758381131        1.1984530447       -1.2604105405
 C          5.1082485307        2.1786225806       -1.3130107971
 C          5.3808456763        0.7103017513       -1.4362588960
 H          5.6663970122        0.3108421328       -2.3972964536
 H          5.8402500585        0.2042399033       -0.5995032284
 H          5.2099661419        2.7960985985       -2.1919785687
 H          5.3939134872        2.6686054512       -0.3947214048
 H          3.3201874223        1.1395006477       -2.1189762614
 O          2.1641750464       -0.8459586983       -2.0662033093
