  62
        -98.94342268
 C          1.8590145702        0.2635310002       -0.2433637389
 C          2.9719800703        0.4679810607       -1.0925472187
 C          4.2790072502        0.5571006007       -0.4284712685
 C          4.3424736000        0.4609616602        0.9124822615
 C          5.6117438498        0.4881979402        1.7129547317
 C          6.1705839600       -0.9266644198        1.9187952713
 C          6.2564229704       -1.7501234094        0.6337744811
 H          6.6914520405       -2.7170530994        0.8956144508
 H          5.2461419004       -1.9412157294        0.2649741308
 C          7.0875868804       -1.1013400389       -0.4818732686
 H          7.7285545602       -0.3246507389       -0.0631177482
 H          7.7407828906       -1.8598027686       -0.9185352087
 C          6.2615758305       -0.5127872786       -1.6271164085
 H          6.9404717806       -0.2805722082       -2.4520574883
 H          5.5515929007       -1.2607781686       -1.9890009089
 C          5.4854038003        0.7689673512       -1.2993731682
 H          5.1064402304        1.1776944014       -2.2408829381
 H          6.1594635901        1.5034643711       -0.8536950578
 H          7.1623538700       -0.8438276598        2.3670784615
 H          5.5227284000       -1.4555492302        2.6215099511
 H          6.3447764998        1.1085127605        1.2007798021
 H          5.3939219596        0.9286220898        2.6873647718
 O          3.2491336399        0.2806724798        1.6965066013
 C          1.9815389700        0.1706586498        1.1432850011
 O          1.0702379399       -0.0002898706        1.9738665809
 O          2.8753961105        0.5781159111       -2.3452741487
 C          0.4767782003        0.1548905402       -0.8581187992
 C         -0.4424037000        1.2221851799       -0.3168065190
 C          0.0452305098        2.5127222099       -0.1263751784
 C         -0.7702084604        3.5121115996        0.3663366318
 C         -2.0982238704        3.2539034593        0.6574504315
 C         -2.6016731002        1.9764205093        0.4518231310
 C         -1.7743101600        0.9691166796       -0.0268798693
 H         -2.1860057998       -0.0150539804       -0.1768143197
 N         -3.9427984302        1.6782310590        0.7363007507
 S         -4.8234108999        0.7382232392       -0.3317565598
 O         -4.3820848697        0.9244161098       -1.6941785297
 O         -6.2055775300        1.0754652389       -0.0620808799
 C         -4.5396803997       -0.9423059409        0.1824056897
 C         -4.4910174094       -1.9314868406       -0.7797417707
 C         -4.3259899392       -3.2489897707       -0.3810411011
 C         -4.2127933794       -3.5523468811        0.9668157188
 C         -4.2641176797       -2.5469464814        1.9205707292
 C         -4.4340303399       -1.2285581113        1.5290412296
 H         -4.4745703201       -0.4241663516        2.2442954999
 H         -4.1715251698       -2.7860838418        2.9677844591
 H         -4.0818296193       -4.5775632612        1.2754610285
 H         -4.2849135690       -4.0314701504       -1.1222717313
 H         -4.5701983493       -1.6497590702       -1.8176270206
 H         -4.4867733704        2.4558001588        1.0811696208
 H         -2.7383474706        4.0345278991        1.0399393316
 H         -0.3718849506        4.5041706996        0.5182293322
 H          1.0796327198        2.7215159102       -0.3635808782
 H          0.6180531404        0.3459783706       -1.9332427891
 C         -0.0626592395       -1.2497956099       -0.6815374897
 C         -0.9808813593       -1.8485672997       -1.7033421101
 C          0.4328539608       -2.3321310895       -1.5916643100
 H          0.6118746609       -3.3129995396       -1.1779414203
 H          1.1350864909       -2.0473460591       -2.3617093598
 H         -1.7722088692       -2.4987774899       -1.3619754704
 H         -1.2477169892       -1.2401430194       -2.5546954799
 H         -0.2212623296       -1.5035684403        0.3608074001
