  62
        -98.94111294
 C          2.0106302166        1.2102845702        0.0982400718
 C          2.8097906764        0.6721988348        1.1388608282
 C          4.0033715248       -0.0763812864        0.7242551672
 C          4.2529688739       -0.2376138456       -0.5877829899
 C          5.4055428042       -1.0152339111       -1.1527255523
 C          5.0231661563       -2.4823085013       -1.3927661008
 C          4.3433019015       -3.1470265174       -0.1956959185
 H          3.3735900369       -2.6721155662       -0.0281313211
 H          4.1472853603       -4.1863245206       -0.4685873641
 C          5.1605287592       -3.1043128713        1.1032455141
 H          6.2060664725       -2.8933766931        0.8759434491
 H          5.1234807591       -4.0898949311        1.5721964468
 C          4.6545330768       -2.0987490573        2.1392643241
 H          3.5837039019       -2.2470935474        2.3007676851
 H          5.1589647385       -2.3049676313        3.0869811456
 C          4.8923278422       -0.6201008461        1.8073658318
 H          4.6627128012       -0.0382610067        2.7049007056
 H          5.9436505481       -0.4644245986        1.5567647257
 H          5.9264902981       -3.0364347963       -1.6541524806
 H          4.3387270141       -2.5273710619       -2.2431893180
 H          5.6911750566       -0.5637286453       -2.1043351332
 H          6.2480305934       -0.9559630744       -0.4662516749
 O          3.4432064499        0.2543073356       -1.5578706316
 C          2.2958483830        0.9771207158       -1.2484671128
 O          1.6455361860        1.3359371300       -2.2461540098
 H         -0.2149961019       -0.4575949358        0.5653934948
 C         -0.7970090071        0.1697282510       -0.0991765252
 C         -0.4263987723        1.4989746599       -0.2680925438
 C         -1.1810160782        2.2930237220       -1.1202879746
 C         -2.2605972907        1.7585514489       -1.8025826406
 C         -2.6152897337        0.4319974011       -1.6458731223
 C         -1.8740071038       -0.3688623248       -0.7854970660
 N         -2.2314198171       -1.7156972698       -0.6099530525
 S         -3.8519981435       -2.0955830738       -0.4478019882
 O         -3.8751068723       -3.3210166251        0.3200814319
 O         -4.4718486207       -2.1576772324       -1.7479581644
 C         -4.5579684065       -0.7541977468        0.4936116154
 C         -5.5614032751        0.0191391698       -0.0532450941
 C         -6.0737835519        1.0733056550        0.6861053934
 C         -5.5731345909        1.3367475517        1.9513997561
 C         -4.5671325373        0.5481122938        2.4888725770
 C         -4.0529474804       -0.5083290547        1.7551571953
 H         -3.2746906861       -1.1434311553        2.1474314961
 H         -4.1790904413        0.7537581595        3.4736273707
 H         -5.9688401469        2.1604892605        2.5241808594
 H         -6.8576043003        1.6865452152        0.2717652849
 H         -5.9192438319       -0.2190286620       -1.0416456825
 H         -1.6651088169       -2.2115250201        0.0616187897
 H         -3.4392301378       -0.0021296990       -2.1885522395
 H         -2.8298372068        2.3833382667       -2.4736698902
 H         -0.9066891540        3.3232813323       -1.2742049086
 C          0.7734828634        1.9946095950        0.4988314620
 H          0.6239312039        1.7357189629        1.5606727509
 C          0.9435924568        3.5053044041        0.4484451024
 C          2.2861014344        4.1366836506        0.6612157156
 C          1.6305083969        4.2057182187       -0.6838466683
 H          1.2359122767        5.1565640876       -1.0113508083
 H          2.0249865770        3.5994291475       -1.4837259658
 H          2.3424130450        5.0364213004        1.2553547519
 H          3.1352585136        3.4796912582        0.7827376588
 H          0.0980348280        4.0195539685        0.8948007605
 O          2.5336174304        0.8084636179        2.3611336887
