  62
        -98.94256425
 C         -2.4248771399       -0.1696155911       -0.2017653082
 C         -1.5312887798       -0.4777077951        0.8495936644
 C         -1.0337668174       -1.8640950081        0.9085219943
 C         -1.3873410786       -2.7273229851       -0.0577214807
 C         -0.9147663562       -4.1440580472       -0.2295806453
 C          0.3169048993       -4.1908041108       -1.1508625972
 C          1.6584704184       -4.0395982401       -0.4361561289
 H          1.8500068817       -4.9318347753        0.1645711922
 H          2.4304672037       -3.9871339894       -1.2075535205
 C          1.7788673224       -2.8015900679        0.4567618405
 H          1.3429737162       -1.9436802861       -0.0587928390
 H          2.8418719991       -2.5853470220        0.5884394937
 C          1.1361232636       -2.9867907284        1.8388498815
 H          0.9505698629       -4.0491736353        1.9997704795
 H          1.8473037255       -2.6745238404        2.6061174700
 C         -0.1582289318       -2.1962977067        2.0861458116
 H         -0.7643368510       -2.7322278235        2.8246137827
 H          0.0902169163       -1.2262089285        2.5256637660
 H          0.2144939293       -3.3950583887       -1.8943018982
 H          0.3210871460       -5.1427971776       -1.6862920326
 H         -0.7007029301       -4.5983080996        0.7337487623
 H         -1.7300573787       -4.6919962486       -0.7067590291
 O         -2.2153041812       -2.3813285370       -1.0816793453
 C         -2.7374420352       -1.1060685634       -1.1886317118
 O         -3.4584637373       -0.9281614916       -2.1923677043
 H         -0.6938134015        1.1121013423       -1.7538516606
 C         -0.6750175412        1.9460677466       -1.0671104576
 C         -1.7869969267        2.2013800744       -0.2735616546
 C         -1.7486590456        3.2846699800        0.5934477518
 C         -0.6099925293        4.0683546073        0.6792810204
 C          0.5157117238        3.7733476692       -0.0679273989
 C          0.4841145016        2.6925412020       -0.9428384476
 N          1.6073254117        2.3365455285       -1.7157148100
 S          2.2364806521        0.7891760346       -1.5934661197
 O          3.3183242254        0.7538582107       -2.5544220579
 O          1.1925026147       -0.1865191271       -1.7748649482
 C          2.9240755748        0.6769784558        0.0503512919
 C          4.2961308770        0.5914391388        0.1887542304
 C          4.8411957082        0.5174900607        1.4602223510
 C          4.0083523439        0.5376261381        2.5687858081
 C          2.6344117734        0.6307818859        2.4122457709
 C          2.0806851715        0.7007301374        1.1429515621
 H          1.0124025244        0.7650864357        1.0064448328
 H          1.9791174118        0.6498515097        3.2686239953
 H          4.4305890624        0.4800473882        3.5597025797
 H          5.9100036905        0.4444476967        1.5817112241
 H          4.9020647674        0.5785425105       -0.7027423807
 H          2.3627761090        3.0066851307       -1.6747875726
 H          1.4131891329        4.3659856707        0.0265835937
 H         -0.5906391646        4.9067233284        1.3588914536
 H         -2.5973024212        3.5001428289        1.2216541865
 C         -2.9474616603        1.2445418946       -0.4049766035
 H         -3.2877348171        1.2709200474       -1.4540248478
 C         -4.1487594367        1.6123227999        0.4512388233
 C         -5.0969749932        0.5574014136        0.9363168925
 C         -4.2253106199        1.2872508217        1.9114145684
 H         -4.6896406846        2.0060908239        2.5706314222
 H         -3.3909340163        0.7646057526        2.3500509880
 H         -6.1547474358        0.7738316671        0.9238551211
 H         -4.8592370081       -0.4709407923        0.7039535887
 H         -4.5977673732        2.5489726118        0.1349712088
 O         -1.1484902677        0.3623070430        1.7065057873
