  62
        -98.94442589
 C         -1.9272382547       -0.8221870215        0.0085582201
 C         -2.4225370290        0.4878671347        0.2144398931
 C         -3.8362974428        0.5770371008        0.6029874027
 C         -4.5594280462       -0.5457725370        0.7661991300
 C         -6.0029541069       -0.6172348522        1.1850367435
 C         -6.9979244383       -0.4400479448        0.0299774165
 C         -7.1105555669        0.9828370350       -0.5186501690
 H         -7.9896367514        1.0082579102       -1.1656924403
 H         -7.2920368249        1.6751410178        0.3040457125
 C         -5.8906278926        1.4485152650       -1.3258058722
 H         -5.2922131982        0.5816583358       -1.6155788841
 H         -6.2255281995        1.9281469356       -2.2483627906
 C         -4.9917497654        2.4475691418       -0.5969510504
 H         -5.5420573932        3.3742757616       -0.4191567196
 H         -4.1420226347        2.6800714307       -1.2441089236
 C         -4.4410338367        1.9413010769        0.7427019988
 H         -3.6504852611        2.6221164540        1.0682304983
 H         -5.2294562821        1.9346856418        1.4951061686
 H         -6.7203030626       -1.1209836899       -0.7778533801
 H         -7.9809277253       -0.7435030491        0.3974014944
 H         -6.1518336919       -1.6087558772        1.6179816670
 H         -6.1989710731        0.1307411814        1.9537591329
 O         -4.0363574624       -1.7875228093        0.5832391059
 C         -2.7204305637       -1.9559298806        0.1840513486
 O         -2.3767262449       -3.1458769296        0.0323790452
 O         -1.7255073158        1.5277532142        0.0860008682
 C         -0.4867104956       -1.0291155669       -0.4249314664
 C          0.4485926153       -0.3956108489        0.5757014402
 C          0.2965757676       -0.7130192980        1.9238286050
 C          1.1134315861       -0.1448096983        2.8807521664
 C          2.1110282855        0.7419797937        2.5134912846
 C          2.2781946240        1.0586891357        1.1717016692
 C          1.4536622139        0.4855749550        0.2112563305
 H          1.5979288260        0.7649465778       -0.8184110403
 N          3.2745452691        1.9649358907        0.7734265664
 S          4.2569060783        1.6180992761       -0.5334343082
 O          5.3747908978        2.5253225345       -0.3964839836
 O          3.5119596900        1.7061070679       -1.7624775181
 C          4.7938149825       -0.0576958658       -0.2451544326
 C          5.8134563973       -0.2685812729        0.6628280484
 C          6.1966720272       -1.5678941811        0.9515790955
 C          5.5505038668       -2.6299810967        0.3369452170
 C          4.5299047415       -2.4013365912       -0.5727377766
 C          4.1445541520       -1.1031893069       -0.8690326074
 H          3.3591510425       -0.8860865339       -1.5738531720
 H          4.0299189658       -3.2284091731       -1.0513171481
 H          5.8452133425       -3.6421520836        0.5652529604
 H          6.9938068247       -1.7492167577        1.6544225975
 H          6.2968468605        0.5846854765        1.1104033872
 H          3.8159228343        2.3473977115        1.5348730470
 H          2.7455149906        1.1944195193        3.2604046194
 H          0.9755096824       -0.3942274026        3.9220404201
 H         -0.4845903880       -1.4044346750        2.2101689774
 H         -0.3199130179       -2.1162018021       -0.4104929732
 C         -0.2949723619       -0.5263034895       -1.8403001871
 C          0.7089376831       -1.1750975354       -2.7431939935
 C         -0.7565859053       -1.3772781305       -2.9834935703
 H         -1.2147670676       -0.8945456868       -3.8337230028
 H         -1.1861674588       -2.3391348011       -2.7427794739
 H          1.2656444844       -0.5521922960       -3.4280456913
 H          1.2667728948       -2.0107003975       -2.3475222795
 H         -0.4446099213        0.5440345079       -1.9288733892
