  62
        -98.94499996
 C         -2.5494262012       -0.1463589601        0.4411689090
 C         -2.4077674813        0.5346652950       -0.7915778111
 C         -2.2114877580        1.9877667926       -0.7015417284
 C         -2.1773615806        2.5755810099        0.5079060848
 C         -1.9776507745        4.0447478414        0.7429273884
 C         -0.4987329380        4.3984442486        0.9453659107
 C          0.4354343218        3.8316918117       -0.1241459085
 H          1.4363425313        4.2128704029        0.0924304752
 H          0.4871963950        2.7449333774       -0.0222725177
 C          0.0548703891        4.1946805087       -1.5660899669
 H         -0.6023513631        5.0654678787       -1.5693085568
 H          0.9640166382        4.4715008106       -2.1039492273
 C         -0.5991824717        3.0590065428       -2.3557467897
 H         -0.0106634033        2.1458516960       -2.2318880349
 H         -0.5794986509        3.3250726754       -3.4161953113
 C         -2.0552034183        2.7438737272       -1.9903188134
 H         -2.6403389668        3.6659089782       -1.9728529092
 H         -2.4619258500        2.0914529656       -2.7686129945
 H         -0.4093391044        5.4867561208        0.9690582065
 H         -0.1780616592        4.0088670623        1.9146473518
 H         -2.3796030706        4.5962415748       -0.1051340139
 H         -2.5322603088        4.3232733273        1.6411711515
 O         -2.3117469097        1.8867457366        1.6716080844
 C         -2.4763426087        0.5113340223        1.6670240437
 O         -2.5571909973       -0.0020137410        2.8039585553
 H         -0.1684024002       -0.8964045872        0.5042284328
 C         -0.2981657057       -1.7743831884       -0.1119120418
 C         -1.5675215617       -2.3161487587       -0.2652747550
 C         -1.7112231581       -3.4564985487       -1.0450989427
 C         -0.6088569018       -4.0240331246       -1.6614411867
 C          0.6495340159       -3.4701147046       -1.5202274346
 C          0.8029821421       -2.3247202558       -0.7447492612
 N          2.0575580628       -1.7036274517       -0.6312941904
 S          2.3568340142       -0.5895777813        0.5918489561
 O          2.1152788649       -1.1846087740        1.8893795150
 O          1.6475286096        0.6295634684        0.2991349751
 C          4.1065297425       -0.3435429727        0.3556060721
 C          4.5301495561        0.5818937692       -0.5790838756
 C          5.8901395754        0.7520059668       -0.7848191833
 C          6.7987525117       -0.0026224336       -0.0577096297
 C          6.3589726599       -0.9259225024        0.8789763918
 C          5.0002461213       -1.1009258472        1.0892179223
 H          4.6119240164       -1.7975128942        1.8148318040
 H          7.0674351263       -1.5082375170        1.4457026060
 H          7.8564777575        0.1322634358       -0.2195170222
 H          6.2354259559        1.4716391445       -1.5094052220
 H          3.7865601076        1.1504849407       -1.1131456732
 H          2.8374841551       -2.3238654034       -0.7954338873
 H          1.5046754900       -3.9082658578       -2.0112090139
 H         -0.7332359200       -4.9109074473       -2.2641914343
 H         -2.6858877003       -3.8986831155       -1.1723933686
 C         -2.7204952700       -1.6536372983        0.4513912268
 H         -2.6820560191       -1.9577976106        1.5090207382
 C         -4.0734385396       -2.0323543359       -0.1173743491
 C         -4.8077018820       -3.2314739352        0.4005870932
 C         -5.2897472905       -1.8537968133        0.7390327622
 H         -6.1973221597       -1.4936453124        0.2785773285
 H         -5.1344151847       -1.4871989235        1.7437563546
 H         -5.3901068336       -3.8188372423       -0.2932299487
 H         -4.3370340891       -3.8071111813        1.1834497906
 H         -4.1609841117       -1.7893627279       -1.1701205578
 O         -2.4541697467       -0.0401111965       -1.9111091810
