  62
        -98.94655381
 C         -1.0811214805       -1.8104780535       -0.2056189116
 C         -1.2258625505       -0.6280760460       -0.9747939052
 C         -2.5522767577        0.0096543654       -0.9294631912
 C         -3.5304823689       -0.5366478104       -0.1870091610
 C         -4.9104939684        0.0306359559       -0.0241532431
 C         -4.9931630784        0.9678427764        1.1879811985
 C         -3.8863086359        2.0216682823        1.2340879266
 H         -4.0742963236        2.6539314470        2.1049626458
 H         -2.9226424634        1.5334867113        1.4006004943
 C         -3.7893645528        2.8988995421       -0.0214745055
 H         -4.7179569099        2.8390924592       -0.5914348886
 H         -3.6633836145        3.9383146962        0.2893097026
 C         -2.6061610757        2.5611403558       -0.9306870779
 H         -1.6963791531        2.5093693795       -0.3260903755
 H         -2.4835750647        3.3803890604       -1.6456353682
 C         -2.7372998998        1.2627652579       -1.7379276589
 H         -3.6988370462        1.2488198811       -2.2564075775
 H         -1.9406821598        1.2539673883       -2.4877950545
 H         -5.9662899160        1.4626502449        1.1751988493
 H         -4.9296649212        0.3658474013        2.0974627770
 H         -5.1854561511        0.5673527761       -0.9301475433
 H         -5.6058451141       -0.7979943850        0.1218996825
 O         -3.3576150114       -1.6715691614        0.5379064563
 C         -2.1361472011       -2.3225186548        0.5540948759
 O         -2.1158852839       -3.3479755340        1.2666040424
 H          0.6556557478        0.0021656050        0.5391006334
 C          1.2865548227       -0.6734679155        1.0915610949
 C          1.1703714937       -2.0411155051        0.9025875570
 C          1.9866320427       -2.8882839764        1.6449039899
 C          2.8971226194       -2.3728717812        2.5492252440
 C          3.0199105606       -1.0060742963        2.7255885204
 C          2.2032366691       -0.1512257790        1.9933507146
 N          2.2932481203        1.2341759424        2.1528732484
 S          1.6662211426        2.3138226450        1.0534631367
 O          2.2975584689        3.5700173347        1.4086579312
 O          0.2257524473        2.3099021946        1.1188258491
 C          2.2289968038        1.8263689117       -0.5681050592
 C          1.4751442121        2.2204889309       -1.6537633692
 C          1.9051408113        1.8880511526       -2.9276930257
 C          3.0745658080        1.1646703906       -3.0935989971
 C          3.8250418894        0.7814502317       -1.9932083043
 C          3.4049252582        1.1190609963       -0.7169665827
 H          3.9741461361        0.8245952867        0.1496588508
 H          4.7334614231        0.2151545179       -2.1233608720
 H          3.4005111013        0.8943641660       -4.0859042392
 H          1.3175228422        2.1827452436       -3.7822482639
 H          0.5592967002        2.7631446281       -1.4842695713
 H          3.0838574479        1.5866199355        2.6688902375
 H          3.7315190005       -0.6016653866        3.4287376343
 H          3.5216824887       -3.0409513191        3.1222356653
 H          1.8953252269       -3.9563142407        1.5183765415
 C          0.2128311521       -2.6011222367       -0.1236258716
 H         -0.0734985277       -3.6109835406        0.2023150494
 C          0.9314234848       -2.7109570066       -1.4573521963
 C          1.7752306348       -3.9126480667       -1.7514977392
 C          0.4696243413       -3.7211355903       -2.4621910834
 H          0.4783452894       -3.4479054295       -3.5063461899
 H         -0.3601017265       -4.3556869069       -2.1849422353
 H          2.6885282696       -3.7728206514       -2.3086028168
 H          1.8299143733       -4.6886141849       -1.0034566532
 H          1.2667611655       -1.7530290840       -1.8339162905
 O         -0.3152592718       -0.1155663175       -1.6761802516
