  62
        -98.94528512
 C          2.2566541115        0.6461967438       -0.1725923312
 C          1.3743447073        0.9686478170        0.8817715479
 C          0.6012352104        2.2161416128        0.7413933372
 C          0.7370851277        2.9357872735       -0.3874792144
 C         -0.0136161643        4.1870806870       -0.7502643114
 C         -1.4481104365        3.8958542669       -1.2379424842
 C         -2.1533025990        2.7256183910       -0.5509832217
 H         -3.0571216478        2.4999885911       -1.1251958024
 H         -1.5202758342        1.8383902835       -0.6189604658
 C         -2.5701875135        2.9659501127        0.8989589871
 H         -3.3747579613        3.7056283298        0.9131311281
 H         -2.9723221748        2.0263389920        1.2864276860
 C         -1.4696164420        3.4565973582        1.8368826918
 H         -1.8984423146        3.5108711722        2.8418722244
 H         -1.1773031177        4.4682632600        1.5678994978
 C         -0.2447241271        2.5509202294        1.9451396968
 H          0.4351414873        2.9857428137        2.6889240617
 H         -0.5556274018        1.5843446943        2.3527319142
 H         -2.0462784999        4.8019042930       -1.1269201959
 H         -1.3944959792        3.6534237092       -2.3019170846
 H         -0.0148569897        4.8648975777        0.0994730470
 H          0.5377050051        4.6685555683       -1.5606669488
 O          1.5747311735        2.5706419013       -1.3977851263
 C          2.3499949644        1.4298249798       -1.3208786361
 O          3.0748863608        1.2237938127       -2.3172532236
 H          0.8625249679       -1.0479243047       -1.5163383475
 C          1.0007038522       -1.8327932627       -0.7873794443
 C          2.1157645117       -1.8055571021        0.0406540249
 C          2.2878105953       -2.8363515411        0.9552987997
 C          1.3434025636       -3.8439350156        1.0563211782
 C          0.2060640972       -3.8352556941        0.2693194507
 C          0.0321274613       -2.8152274559       -0.6601106550
 N         -1.1075050877       -2.7665835468       -1.4848955506
 S         -2.0265280362       -1.3736822382       -1.5960591787
 O         -3.0892717952       -1.7111732259       -2.5182987177
 O         -1.1948470366       -0.2566334468       -1.9617009293
 C         -2.7303615816       -1.1272973335        0.0261951279
 C         -4.0954073156       -1.2711854335        0.1848780713
 C         -4.6489473411       -1.1061500941        1.4441219375
 C         -3.8296788651       -0.8133132175        2.5239201201
 C         -2.4611692780       -0.6784980871        2.3493065444
 C         -1.9014097288       -0.8312388828        1.0897967336
 H         -0.8395606885       -0.7173586780        0.9372862301
 H         -1.8143028682       -0.4545799565        3.1830673204
 H         -4.2572727468       -0.6876119991        3.5060799270
 H         -5.7135922029       -1.2085037516        1.5792815040
 H         -4.6907245022       -1.5040232664       -0.6830154084
 H         -1.7157598400       -3.5685539611       -1.3970083357
 H         -0.5413163492       -4.6076147249        0.3698265968
 H          1.4861789930       -4.6379350970        1.7733642240
 H          3.1545053358       -2.8459013950        1.5956026890
 C          3.0638445025       -0.6391721705       -0.1079546074
 H          3.5734229831       -0.7288032669       -1.0787640797
 C          4.1042600862       -0.5601996596        0.9894208756
 C          5.3849328835       -1.3292312426        0.8725753589
 C          5.3886449213        0.1611567585        0.7172600878
 H          5.8193444450        0.7628216981        1.5034403337
 H          5.5228941673        0.5753643808       -0.2717927688
 H          5.8183054700       -1.7494657188        1.7675832225
 H          5.5289263591       -1.9299057155       -0.0128591610
 H          3.6628764678       -0.4424289768        1.9722532176
 O          1.2257461501        0.2388665048        1.8989471225
