  62
        -98.93837364
 C         -1.7599580046       -0.1657261453       -0.9167082412
 C         -2.9301190081        0.6299960406       -0.9997344290
 C         -4.1909984766       -0.0603088266       -0.6837796148
 C         -4.1871881508       -1.3649555968       -0.3603951856
 C         -5.3931799419       -2.2033200972       -0.0335917729
 C         -5.8477477485       -2.0989908920        1.4285888461
 C         -6.5199775990       -0.7788352088        1.8077859782
 H         -7.3228109131       -0.5651900981        1.1013979352
 H         -6.9786589001       -0.9230214064        2.7880855040
 C         -5.5643851028        0.4203081030        1.8820005812
 H         -4.5341450120        0.0621417892        1.9450072981
 H         -5.7617500278        0.9872104065        2.7946996777
 C         -5.6789902737        1.3951468403        0.7099757615
 H         -4.9353529009        2.1844901647        0.8464192349
 H         -6.6672515521        1.8604273898        0.7156239830
 C         -5.4465855807        0.7587178447       -0.6666823182
 H         -6.3041013641        0.1482432170       -0.9486645311
 H         -5.3303007645        1.5610140955       -1.3994944318
 H         -6.5592815733       -2.9085195273        1.6072763379
 H         -4.9836556728       -2.2669411757        2.0755751686
 H         -6.2182241393       -1.9318065240       -0.6927135696
 H         -5.1140003103       -3.2399247853       -0.2342323379
 O         -3.0439242577       -2.0995416880       -0.3109391391
 C         -1.8140339092       -1.5174963728       -0.5642662392
 O         -0.8487385116       -2.3012230653       -0.4586481389
 O         -2.9486760244        1.8462842170       -1.3155183112
 C         -0.3648206051        0.3699585670       -1.1883767370
 C          0.2515057470        0.9772164646        0.0454211192
 C         -0.4548893331        1.8524589164        0.8637851587
 C          0.1495092217        2.4109142339        1.9753360116
 C          1.4702854757        2.1289444141        2.2775460567
 C          2.1850662458        1.2562045221        1.4659284403
 C          1.5650443309        0.6729823971        0.3699010066
 H          2.1169455168       -0.0227834578       -0.2426091731
 N          3.5224206982        0.9437541703        1.7410976279
 S          4.6086128426        0.7422162010        0.4827023172
 O          5.9020513811        1.0024663557        1.0767227680
 O          4.2534189861        1.5545928390       -0.6565332032
 C          4.4960595828       -0.9865618441        0.0764166922
 C          4.6844363042       -1.9077508177        1.0876040168
 C          4.6119908499       -3.2575755175        0.7848113928
 C          4.3547009656       -3.6612931134       -0.5167290773
 C          4.1713950821       -2.7241539777       -1.5214412409
 C          4.2433677147       -1.3722527266       -1.2248118770
 H          4.1015605113       -0.6111898056       -1.9765620523
 H          3.9689921320       -3.0395635780       -2.5325122852
 H          4.2950966516       -4.7125467860       -0.7505126367
 H          4.7529197807       -3.9906526972        1.5626855945
 H          4.8850218540       -1.5555548549        2.0856850584
 H          3.9279926371        1.4402373192        2.5206839897
 H          1.9449157904        2.5796847238        3.1359376184
 H         -0.4094474447        3.0865104053        2.6054248313
 H         -1.4751225105        2.1001166939        0.6137542106
 H          0.2366504793       -0.5157911354       -1.4491878656
 C         -0.3049542652        1.3140403917       -2.3824164727
 C         -0.1160328367        2.7929421204       -2.2633780785
 C          0.9981343508        1.9396381016       -2.7864264551
 H          1.2389966548        1.9923328808       -3.8378303447
 H          1.8567666901        1.7892399964       -2.1469362188
 H         -0.6601783151        3.4237284698       -2.9496307065
 H         -0.0125234743        3.2164366680       -1.2768439118
 H         -0.9500537546        0.9791778072       -3.1889229040
