  62
        -98.93646111
 C         -1.9388912005       -0.6839906799        0.0354500806
 C         -2.9510620206       -0.6174092386        1.0263030104
 C         -4.0897060003        0.2792149115        0.7648227494
 C         -4.1049751700        0.9927748304       -0.3738635813
 C         -5.1824528196        1.9192996402       -0.8656452724
 C         -6.1670472897        1.1721510896       -1.7813171218
 C         -7.3249740500        0.4851626007       -1.0584828812
 H         -8.0118994798        1.2446753613       -0.6792321321
 H         -7.8670593301       -0.1051367099       -1.8009211607
 C         -6.9215265005       -0.4312261083        0.0995366497
 H         -7.7456551007       -1.1237850579        0.2811452403
 H         -6.0549907706       -1.0290001088       -0.1889567496
 C         -6.6191056004        0.3326400829        1.3973410390
 H         -6.9633587901        1.3615505429        1.2946495580
 H         -7.1930299206       -0.1047841861        2.2169714794
 C         -5.1472151404        0.3211420429        1.8339380592
 H         -4.9561441108       -0.5659338866        2.4462085301
 H         -4.9584615503        1.1878300535        2.4766365584
 H         -6.5885358194        1.8822495391       -2.4957493325
 H         -5.5986690799        0.4333293689       -2.3522576010
 H         -5.6977208096        2.3886475412       -0.0329095629
 H         -4.6825353293        2.6940119995       -1.4510250231
 O         -3.1063987299        0.9146470592       -1.2936088311
 C         -2.0054133501        0.0877772290       -1.1247689301
 O         -1.1895886000        0.1510931179       -2.0639043801
 O         -2.9106617610       -1.2968737875        2.0873949111
 C         -0.7891269608       -1.6397813999        0.3029867717
 C          0.3944407293       -0.9353687397        0.9149241312
 C          1.0023902990       -1.4288241587        2.0633470317
 C          2.0979394191       -0.7859176685        2.6137447413
 C          2.6131179295        0.3557122107        2.0272331102
 C          2.0155835698        0.8539553798        0.8761041296
 C          0.9151310197        0.2102287296        0.3283865901
 H          0.4568229299        0.6019364788       -0.5677178303
 N          2.5417337103        2.0036186090        0.2602250086
 S          4.1980558003        2.0446838783        0.0124634087
 O          4.8541559103        2.4441680393        1.2328309684
 O          4.3960444907        2.9150336771       -1.1246365421
 C          4.6441540699        0.3651888277       -0.3909363795
 C          4.1348734298       -0.1796121533       -1.5532301891
 C          4.4266988395       -1.4990480736       -1.8590393677
 C          5.2148559591       -2.2484684630       -0.9990469869
 C          5.7233623192       -1.6853107721        0.1609069126
 C          5.4357962195       -0.3657712917        0.4713571813
 H          5.8100762495        0.1112710591        1.3622489909
 H          6.3380311689       -2.2698664216        0.8261637133
 H          5.4322895589       -3.2775638233       -1.2371162559
 H          4.0302728295       -1.9386243344       -2.7601018374
 H          3.5250875401        0.4303256663       -2.2015230598
 H          2.0422278105        2.2754309783       -0.5741161618
 H          3.4605199196        0.8744801309        2.4449785898
 H          2.5554498689       -1.1765813078        3.5095253517
 H          0.6009233387       -2.3145294582        2.5331856626
 H         -1.1822955812       -2.3359648291        1.0604241524
 C         -0.4136549809       -2.4705337513       -0.9176455074
 C          0.8373113692       -2.2685800124       -1.7129092375
 C          0.6990612988       -3.4736521415       -0.8352056063
 H          0.5586504785       -4.4399259319       -1.2949030853
 H          1.2808429986       -3.4931705908        0.0738210538
 H          0.7700052893       -2.3881316035       -2.7834285973
 H          1.5191165094       -1.4921626423       -1.4047057481
 H         -1.2935387710       -2.7664019315       -1.4811006872
