  62
        -98.94219312
 C         -2.5184645396       -1.1033972208       -0.1961651505
 C         -3.7295980696       -1.0734929811        0.5379217095
 C         -4.7504850097       -0.1395307612        0.0518499197
 C         -4.5000583999        0.6173347590       -1.0321488702
 C         -5.4508390801        1.5966141390       -1.6657415000
 C         -5.4570050403        2.9819131488       -1.0049192498
 C         -6.1295654803        3.0454844285        0.3669235503
 H         -6.2567400604        4.1017700584        0.6121342904
 H         -7.1245362702        2.6039448883        0.3031130702
 C         -5.3346975101        2.3696761784        1.4930126201
 H         -4.2992674901        2.2280930886        1.1738191201
 H         -5.3121311602        3.0248962783        2.3667454502
 C         -5.9011126499        1.0250948183        1.9492729899
 H         -6.8868632999        1.1752630480        2.3949541499
 H         -5.2412613398        0.6193729782        2.7203081498
 C         -6.0245018798       -0.0200571916        0.8328214497
 H         -6.8536087198        0.2314862084        0.1719741998
 H         -6.2240118796       -0.9909518817        1.2928039296
 H         -5.9868209704        3.6605672789       -1.6774040196
 H         -4.4260061303        3.3342078790       -0.9225856997
 H         -5.1304824001        1.7123361692       -2.7034230100
 H         -6.4601452700        1.1840172788       -1.6574523701
 O         -3.3232038599        0.5586393793       -1.7108603002
 C         -2.2989012097       -0.2848093906       -1.3037503804
 O         -1.2728737998       -0.2170789503       -2.0086748504
 O         -3.9469265294       -1.7955487314        1.5469550694
 C         -1.4133863994       -2.0390242907        0.2638558693
 C         -0.2260855096       -1.2096512706        0.6848555394
 C         -0.3440342997       -0.4039423508        1.8152576996
 C          0.6958478302        0.4152178293        2.2065149597
 C          1.8778129002        0.4487611696        1.4848866497
 C          2.0043586003       -0.3428329702        0.3527601095
 C          0.9570632704       -1.1746377103       -0.0321930406
 H          1.0652477505       -1.7785130701       -0.9192670207
 N          3.1972191303       -0.3563684499       -0.3883186405
 S          4.0734810500        1.0155253004       -0.8012175903
 O          3.4968775399        2.1979309102       -0.2107084701
 O          4.2204957600        1.0104396406       -2.2405955003
 C          5.6628945001        0.6812608405       -0.0606633204
 C          5.7582521702        0.6034868503        1.3150108396
 C          6.9900736002        0.3350593004        1.8896563195
 C          8.1033675502        0.1484471807        1.0839817595
 C          7.9928090902        0.2268038109       -0.2954334705
 C          6.7622873801        0.4942761108       -0.8751288904
 H          6.6302697501        0.5641562510       -1.9425813204
 H          8.8585072002        0.0804983112       -0.9212523805
 H          9.0610962203       -0.0597605492        1.5342594494
 H          7.0769683902        0.2715627202        2.9624897895
 H          4.8745995401        0.7515444700        1.9132727297
 H          3.1522878904       -0.9699848997       -1.1888709906
 H          2.6737470601        1.1155090697        1.7705140298
 H          0.5896595601        1.0377466591        3.0823812798
 H         -1.2701140897       -0.4221316211        2.3736611696
 H         -1.8124287293       -2.5439462709        1.1547698992
 C         -1.1039750693       -3.0809274305       -0.7893810709
 C         -0.3806872191       -4.3355859604       -0.4030889711
 C         -1.8352717791       -4.3880838006       -0.7588829711
 H         -2.1223000190       -4.8385807505       -1.6972180712
 H         -2.5526740290       -4.5385583209        0.0343682389
 H          0.3323563110       -4.7551758602       -1.0964827012
 H         -0.1078595590       -4.4522049506        0.6346495188
 H         -0.8990735794       -2.6508387903       -1.7633052308
