  62
        -98.94786562
 C         -1.0049023069       -0.9646314279        0.7161051474
 C         -1.6503112635       -0.8658315601       -0.5397765939
 C         -2.3324465427        0.4062731833       -0.8058483786
 C         -2.2525314164        1.4086358766        0.0868204735
 C         -2.8542627595        2.7799803334       -0.0640786869
 C         -4.3337718828        2.8638286392        0.3362409752
 C         -5.3115919523        2.2062761189       -0.6381471265
 H         -5.1251791699        2.5803978861       -1.6453536687
 H         -6.3146225659        2.5280855392       -0.3510621003
 C         -5.2673274572        0.6719267501       -0.6409195406
 H         -6.2856733221        0.2780611789       -0.6125840777
 H         -4.7615036814        0.3201010464        0.2609978731
 C         -4.5793000171        0.0608517713       -1.8617265943
 H         -5.1508254527        0.2969061611       -2.7621594416
 H         -4.5703721332       -1.0256199191       -1.7434947051
 C         -3.1313972013        0.5254443321       -2.0676164245
 H         -3.1109781196        1.5515167915       -2.4357126274
 H         -2.6617468233       -0.1186815536       -2.8155462570
 H         -4.5895592233        3.9230598193        0.4138525173
 H         -4.4522873873        2.4187563315        1.3266793508
 H         -2.2840359316        3.4447776006        0.5888699173
 H         -2.7310689215        3.1194349846       -1.0934491826
 O         -1.5710685246        1.2943361344        1.2583539339
 C         -0.9401535120        0.1083492398        1.6032561076
 O         -0.3581655342        0.1388345326        2.7065907476
 H          1.4442560621       -0.3772013028        0.2600663560
 C          1.6474365774       -1.3178217739       -0.2308294708
 C          0.8696518183       -2.4253671111        0.0827721015
 C          1.1530249839       -3.6330757210       -0.5401184127
 C          2.1683195610       -3.7108774690       -1.4786483510
 C          2.9058502873       -2.5934895132       -1.8243743085
 C          2.6391011162       -1.3829639993       -1.1937703676
 N          3.3688125558       -0.2240042003       -1.4968609098
 S          2.6159583701        1.2693735263       -1.4390008608
 O          1.2370925429        1.2049623535       -1.8653952402
 O          3.4782285464        2.1292147182       -2.2247405417
 C          2.7237168748        1.7587805852        0.2682573851
 C          1.6402031580        2.3774934131        0.8581262021
 C          1.7304734175        2.7735345458        2.1825002517
 C          2.9018354551        2.5494556176        2.8883761130
 C          3.9855972893        1.9352883237        2.2790415596
 C          3.9004924707        1.5357579132        0.9552437495
 H          4.7190165045        1.0508078405        0.4500620544
 H          4.8938116250        1.7623987391        2.8337234302
 H          2.9658034516        2.8521473956        3.9216011145
 H          0.8815307699        3.2375625485        2.6582436883
 H          0.7404650157        2.5158860845        0.2778878215
 H          4.0035128752       -0.3036788161       -2.2779052135
 H          3.6773504576       -2.6519656003       -2.5768668401
 H          2.3756593505       -4.6532542653       -1.9626902043
 H          0.5718712446       -4.5090722910       -0.3031665894
 C         -0.2454967502       -2.2282893434        1.0818295977
 H          0.2063849479       -2.0383433483        2.0665791472
 C         -1.1835793034       -3.4110502059        1.1907090584
 C         -0.8539464627       -4.5532869085        2.1028695105
 C         -1.9586827183       -3.6053990916        2.4580875535
 H         -2.9794198709       -3.9505652418        2.3902530409
 H         -1.7898296676       -2.8962779674        3.2555920305
 H          0.0642047742       -4.4932873126        2.6672680425
 H         -1.1188497038       -5.5531812110        1.7938710475
 H         -1.6890541002       -3.6278913152        0.2568418634
 O         -1.6614957800       -1.7902856183       -1.3943677950
