  62
        -98.94411958
 C         -1.5033068611       -1.5062199567        0.3927839639
 C         -1.7587387780       -0.3204619229        1.1246671179
 C         -2.9058057257        0.4754164747        0.6744793484
 C         -3.6162008596        0.0764423457       -0.3961771402
 C         -4.8178841277        0.7755637297       -0.9722347994
 C         -4.4725218150        1.9257019729       -1.9283568237
 C         -3.9266389966        3.1878950422       -1.2594643770
 H         -3.9368614750        3.9780853765       -2.0127306318
 H         -4.6009121601        3.4929198716       -0.4586075559
 C         -2.5001385059        3.0480664975       -0.7095754354
 H         -2.0179622574        2.1774779124       -1.1604292973
 H         -1.9113558999        3.9217360976       -0.9962968903
 C         -2.4153294305        2.9263394853        0.8114065171
 H         -2.7690730365        3.8500848913        1.2740744635
 H         -1.3666192464        2.7873885389        1.0815798410
 C         -3.2078005282        1.7524491958        1.3986401483
 H         -2.9059548076        1.6222652870        2.4407650508
 H         -4.2768475272        1.9621111274        1.3681638626
 H         -5.3882632447        2.1901761933       -2.4622771279
 H         -3.7520124536        1.5622797077       -2.6647327608
 H         -5.4477861943        1.1487570767       -0.1642863996
 H         -5.3779515420        0.0214317213       -1.5293051619
 O         -3.3217750764       -1.0549354879       -1.0892390886
 C         -2.2614865351       -1.8713652968       -0.7201021270
 O         -2.1146720477       -2.8701790198       -1.4489072837
 O         -1.0677241457        0.0494884278        2.1111908756
 C         -0.3463529440       -2.3894392062        0.8282820599
 C          0.7220805540       -2.3701390292       -0.2362353426
 C          0.9694027794       -3.4404123958       -1.0858965326
 C          1.9407156164       -3.3437226468       -2.0665419899
 C          2.7000007133       -2.1962251436       -2.1987800951
 C          2.4667984625       -1.1214697515       -1.3475369569
 C          1.4726120174       -1.2089684198       -0.3865265630
 H          1.2850875363       -0.3675471866        0.2661593741
 N          3.2266274902        0.0545646313       -1.4526220344
 S          3.8039913819        0.7874424782       -0.0592227036
 O          5.0306360171        1.4365122456       -0.4750890407
 O          3.9221877571       -0.1565404824        1.0264402103
 C          2.6155586826        2.0535044325        0.3240850928
 C          2.0736980195        2.1307370407        1.5907725132
 C          1.2174648716        3.1784617281        1.8901216992
 C          0.9186346480        4.1240123213        0.9210838972
 C          1.4624495573        4.0255664354       -0.3509061123
 C          2.3228865051        2.9835690131       -0.6542129458
 H          2.7770866866        2.8804953653       -1.6256271215
 H          1.2220627937        4.7597565088       -1.1029232872
 H          0.2557932754        4.9409941673        1.1594726688
 H          0.7844522664        3.2464356894        2.8753920131
 H          2.3254457224        1.3727290587        2.3155779433
 H          3.9406503890        0.0244932714       -2.1665272116
 H          3.4683121699       -2.1278445524       -2.9543496203
 H          2.1165143690       -4.1782265488       -2.7285034657
 H          0.3901223330       -4.3434245333       -0.9914610249
 H          0.0666899196       -1.9060782246        1.7251948745
 C         -0.8192633421       -3.7787866114        1.2000468761
 C          0.0639912077       -4.6604562028        2.0295948820
 C         -1.1783648590       -4.0707064625        2.6247619300
 H         -2.0163727133       -4.7226228834        2.8210584147
 H         -1.0722175400       -3.2689804855        3.3409241087
 H          0.0810115787       -5.7191499632        1.8204194458
 H          1.0167307944       -4.2579051812        2.3399393689
 H         -1.4265718263       -4.2424364824        0.4318593666
