  62
        -98.94353915
 C         -1.7349814800       -1.1795114698        0.3960951301
 C         -2.7058473599       -1.0120593105       -0.6215642402
 C         -3.9653170300       -0.3756023304       -0.2051491607
 C         -4.1177798502        0.0222208404        1.0705703791
 C         -5.3212889703        0.7382871206        1.6096706086
 C         -5.1528473404        2.2607580105        1.5070051077
 C         -4.7012277003        2.7411583098        0.1275828975
 H         -4.6473110104        3.8314759698        0.1645569169
 H         -3.6888014402        2.3774756697       -0.0645020022
 C         -5.6196948001        2.3134834790       -1.0256918824
 H         -6.5932314901        2.0170202792       -0.6334624423
 H         -5.7820307301        3.1724163087       -1.6802476829
 C         -5.0602075199        1.1882234286       -1.8981027017
 H         -4.0460718199        1.4418778885       -2.2175468417
 H         -5.6779948198        1.1168347780       -2.7972288717
 C         -5.0283287099       -0.2031706610       -1.2533045409
 H         -6.0129096499       -0.4435059709       -0.8472071908
 H         -4.7936858497       -0.9263570815       -2.0397502704
 H         -6.1032434905        2.7316225606        1.7647353473
 H         -4.4072705305        2.5774403410        2.2402130376
 H         -6.2038583502        0.4220220802        1.0572859486
 H         -5.4432689004        0.4654693512        2.6592888087
 O         -3.1546046903       -0.1364121790        2.0143191993
 C         -1.9400178002       -0.7187581191        1.6981045198
 O         -1.1323250503       -0.7687734085        2.6490809099
 H          0.7628684898        0.3924653807        1.0330048194
 C          0.9471925799        0.2943107201       -0.0298334105
 C          0.4252945201       -0.8036152803       -0.7032386199
 C          0.6593832503       -0.9200687111       -2.0665675398
 C          1.3944945403        0.0447463686       -2.7352095203
 C          1.9233875001        1.1298005890       -2.0596440209
 C          1.6954158199        1.2515543298       -0.6951897110
 N          2.2960910898        2.3207550403        0.0129855785
 S          3.9682315198        2.1673053004        0.1097024788
 O          4.3763054996        2.9604235811        1.2470831484
 O          4.5437034099        2.5312761598       -1.1595601114
 C          4.2152795499        0.4280208006        0.4215015898
 C          4.0340058698       -0.0382861686        1.7082281300
 C          4.1024713698       -1.4018128385        1.9435692508
 C          4.3354445700       -2.2717880091        0.8893974613
 C          4.5166369701       -1.7877392298       -0.3969717789
 C          4.4561124401       -0.4246327900       -0.6370617497
 H          4.5900918901       -0.0082185205       -1.6216245299
 H          4.6960410903       -2.4675284703       -1.2141499785
 H          4.3763032301       -3.3341381590        1.0735648720
 H          3.9618404998       -1.7805645579        2.9434204810
 H          3.8506719996        0.6692004218        2.5015779496
 H          1.9247235897        2.4203520508        0.9481090084
 H          2.5213499801        1.8752511388       -2.5587147512
 H          1.5629032004       -0.0535926820       -3.7967258802
 H          0.2532511804       -1.7589222714       -2.6063618994
 C         -0.3778438399       -1.7980339899        0.0986786506
 H          0.1167676100       -1.9099347493        1.0733419507
 C         -0.4806572697       -3.1615291203       -0.5488391987
 C          0.7438665203       -4.0240194002       -0.6020231180
 C         -0.3883583597       -4.3846306798        0.3106844020
 H         -1.0030425096       -5.2361549700        0.0600161225
 H         -0.2562530299       -4.2410217592        1.3732764920
 H          0.9101639305       -4.6314535607       -1.4781672377
 H          1.6457460503       -3.6270039399       -0.1604806682
 H         -1.1657493296       -3.1915176208       -1.3861622587
 O         -2.5434295997       -1.3727440412       -1.8152905699
