  62
        -98.94011278
 C         -1.7335769544       -1.2156860940       -0.6627800268
 C         -1.5477356472       -0.2050006172        0.3140541670
 C         -2.7691137004        0.2619696492        0.9883969173
 C         -3.9560608816       -0.3004564239        0.7032264804
 C         -5.2804852093        0.0570274250        1.3210982258
 C         -5.9686064725        1.2632547329        0.6672839962
 C         -5.3310248457        2.6199338279        0.9702666170
 H         -6.0337729636        3.3855198507        0.6354884672
 H         -5.2163771755        2.7331824802        2.0487894535
 C         -3.9802890854        2.8543064790        0.2794761903
 H         -3.8599257134        2.1374752981       -0.5359678999
 H         -3.9675850615        3.8514454771       -0.1660621450
 C         -2.7690168181        2.7570041185        1.2074529724
 H         -2.8113026201        3.5553566653        1.9517258617
 H         -1.8652404795        2.9032841618        0.6103747607
 C         -2.6411926507        1.4141210471        1.9388254569
 H         -1.6485058334        1.3610803483        2.3943560120
 H         -3.3897284518        1.3426631057        2.7278937050
 H         -7.0002927322        1.2827202073        1.0259339728
 H         -5.9958219734        1.1063216946       -0.4134968310
 H         -5.1484158475        0.2449512479        2.3871271652
 H         -5.9258153341       -0.8157105841        1.1994813405
 O         -4.0846290105       -1.3097619319       -0.1986040701
 C         -2.9892092557       -1.7815703565       -0.9035242108
 O         -3.2585437363       -2.7021891864       -1.7011961814
 O         -0.4366643774        0.2989036823        0.6142592853
 C         -0.5731062997       -1.8013764826       -1.4504966706
 C          0.5209197790       -2.2339542433       -0.5064249455
 C          0.3303170455       -3.3971431076        0.2346176695
 C          1.3026965058       -3.8503582879        1.1044888710
 C          2.4811720456       -3.1422259257        1.2585266525
 C          2.6754136262       -1.9704409993        0.5386134278
 C          1.7017238796       -1.5246666622       -0.3457379468
 H          1.8618314578       -0.6105978806       -0.8933871023
 N          3.8717002456       -1.2349692236        0.6735067250
 S          3.7645470293        0.3124833297        1.3340133695
 O          5.1019982973        0.5728409607        1.8312163160
 O          2.7079553450        0.3961775601        2.3143463378
 C          3.4643525879        1.3895348876       -0.0481416283
 C          4.5119246210        1.6157208358       -0.9202405783
 C          4.3225456967        2.4829225337       -1.9833647005
 C          3.0978680641        3.1132256052       -2.1476999004
 C          2.0580247968        2.8733403376       -1.2628310698
 C          2.2356757471        1.9985972253       -0.2011902327
 H          1.4407140455        1.7600721363        0.4876156035
 H          1.1045450653        3.3601848293       -1.3946407215
 H          2.9508413598        3.7950171177       -2.9708472652
 H          5.1274506432        2.6689196464       -2.6761117061
 H          5.4513371539        1.1196003757       -0.7414610427
 H          4.5916348132       -1.7412970039        1.1721367852
 H          3.2452415081       -3.4891174653        1.9388590410
 H          1.1428495042       -4.7572512666        1.6682859650
 H         -0.5960273363       -3.9435517625        0.1168951049
 H         -0.9842855367       -2.7126171290       -1.9146868277
 C         -0.0722016280       -0.9293532660       -2.5916917396
 C         -1.0536163158       -0.2307503869       -3.4849158223
 C         -0.1549642755        0.5651859069       -2.5895804372
 H          0.6581660982        1.1166702054       -3.0381072448
 H         -0.5831264399        1.0463121499       -1.7254818710
 H         -0.8684892141       -0.2193995271       -4.5482739298
 H         -2.0995162663       -0.3081490692       -3.2239858214
 H          0.7947667979       -1.3666677885       -3.0774125094
