  62
        -98.93513559
 C         -1.9702572363       -1.1501989472        0.1313155925
 C         -2.4263444784       -0.3061266418        1.1747673715
 C         -3.1540621821        0.9117497412        0.7835771105
 C         -3.3203227600        1.1757992582       -0.5234840027
 C         -4.0643048726        2.3276024020       -1.1408099108
 C         -5.5241235644        1.9405561648       -1.4333245689
 C         -6.4931495182        2.1591082655       -0.2720905856
 H         -6.6419112934        3.2310948821       -0.1271257922
 H         -7.4541288429        1.7313783059       -0.5666903610
 C         -6.0668744866        1.5395456608        1.0613209119
 H         -5.6672988079        0.5382632676        0.8906602782
 H         -6.9594219569        1.4309083600        1.6803126029
 C         -5.0367435252        2.3892109891        1.8203574383
 H         -5.3807089416        2.5447505309        2.8449146353
 H         -4.9791251102        3.3755704843        1.3604894198
 C         -3.6296076317        1.7816093517        1.9150705672
 H         -2.9005988235        2.5859308292        2.0620357623
 H         -3.5676698998        1.1407859924        2.8003366094
 H         -5.5376459182        0.8893681731       -1.7327333055
 H         -5.8773912674        2.5267224469       -2.2840937199
 H         -3.5641962518        2.5482130772       -2.0864576285
 H         -4.0087497198        3.2060171177       -0.5046065961
 O         -2.8491745681        0.3517500597       -1.4976892577
 C         -2.1574320409       -0.8149565081       -1.2091222744
 O         -1.7831550269       -1.4343135939       -2.2242917588
 O         -2.2422610865       -0.5719771668        2.3933119219
 C         -1.2153956238       -2.3998950993        0.5529715186
 C          0.2588602258       -2.0981353299        0.6343904118
 C          0.9901687587       -2.3521473736        1.7881185743
 C          2.3331776437       -2.0229382440        1.8592329531
 C          2.9697771343       -1.4240178579        0.7862956616
 C          2.2450246102       -1.1638656789       -0.3689270995
 C          0.9061334006       -1.5081847276       -0.4433462806
 H          0.3511774817       -1.2977832236       -1.3465166736
 N          2.8799327643       -0.4980057469       -1.4513626749
 S          2.9227047367        1.1736255220       -1.2119544641
 O          1.7129408441        1.6446472635       -0.5712953982
 O          3.2264900524        1.7484658557       -2.5042250783
 C          4.3124452411        1.3786566779       -0.1211568698
 C          5.5804360813        1.1797603867       -0.6322001406
 C          6.6695127153        1.3067322440        0.2151249182
 C          6.4722789932        1.6266442962        1.5504601200
 C          5.1927512186        1.8247946856        2.0469040166
 C          4.0987075936        1.6996858338        1.2047453067
 H          3.0850072778        1.8389384024        1.5455290407
 H          5.0408886316        2.0729583397        3.0850145085
 H          7.3210125168        1.7226649477        2.2090425298
 H          7.6660892932        1.1544760002       -0.1666985625
 H          5.6844028455        0.9372561580       -1.6766040998
 H          2.4043682658       -0.6679038607       -2.3287485539
 H          4.0136130107       -1.1601922572        0.8337134150
 H          2.8878844439       -2.2269807703        2.7619380663
 H          0.4926907578       -2.7927464623        2.6396157474
 H         -1.5668480865       -2.6068524298        1.5761485592
 C         -1.5366947681       -3.6213051273       -0.2962151102
 C         -0.5526518243       -4.2761341355       -1.2145177643
 C         -0.9453356160       -4.9528784517        0.0621502720
 H         -1.5739544858       -5.8288435571        0.0147424686
 H         -0.2168702761       -4.9710086109        0.8586961818
 H         -0.9267696060       -4.6641233130       -2.1496698582
 H          0.4392237001       -3.8582212367       -1.2861683451
 H         -2.5698654550       -3.6207547939       -0.6283711177
