  62
        -98.94039793
 C          2.0228060798        1.4520141601        0.4318658387
 C          2.3394612498        0.8490866202       -0.8102307913
 C          3.1963211203       -0.3467908294       -0.7437701114
 C          3.6198729008       -0.7981471792        0.4500086985
 C          4.4350504514       -2.0403606288        0.6613634884
 C          3.5326809320       -3.2615944592        0.8885500787
 C          2.4168550618       -3.4022245498       -0.1470032511
 H          1.8555256723       -4.3072722700        0.0955995891
 H          1.7314408515       -2.5571387500       -0.0482739110
 C          2.9065453515       -3.4806162796       -1.5997281512
 H          2.3715913518       -4.2856860099       -2.1080816510
 H          3.9673328216       -3.7327727892       -1.6215075114
 C          2.6733494908       -2.2069536298       -2.4144229112
 H          2.8592235407       -2.4375412497       -3.4669441112
 H          1.6261312107       -1.9043691502       -2.3290964010
 C          3.5559103004       -1.0074406294       -2.0455654615
 H          4.6049139805       -1.3101595989       -2.0467988117
 H          3.4179212999       -0.2450794095       -2.8181007015
 H          3.0764557221       -3.1741996394        1.8772556388
 H          4.1549223924       -4.1581079789        0.8798577186
 H          5.0737596613       -2.2026464686       -0.2046589517
 H          5.0627521815       -1.8940349185        1.5418491083
 O          3.3009971908       -0.1915557493        1.6207775686
 C          2.5001334303        0.9366095404        1.6417847587
 O          2.2900354903        1.3908178103        2.7832656887
 H         -0.1958202305        1.3114546690       -1.3194009008
 C         -0.8362259604        1.5895675088       -0.4952350207
 C         -0.3044646805        2.3228369491        0.5573679992
 C         -1.1375592205        2.6701185688        1.6137757594
 C         -2.4724035403        2.3018799482        1.6084366797
 C         -3.0015974502        1.5804422679        0.5534909998
 C         -2.1732228703        1.2204588782       -0.5024808804
 N         -2.6921397502        0.4760983879       -1.5753822502
 S         -3.6830870295       -0.8217232625       -1.2201556199
 O         -3.5209241894       -1.7412311025       -2.3237572699
 O         -5.0260433397       -0.3512697431       -0.9872058697
 C         -3.0313818889       -1.5289383621        0.2839090000
 C         -1.7176140987       -1.9542227815        0.2961032297
 C         -1.1986313282       -2.4918987713        1.4623329896
 C         -1.9972969880       -2.5952595115        2.5910536598
 C         -3.3152272882       -2.1676254121        2.5619717001
 C         -3.8390867486       -1.6275677524        1.3983866901
 H         -4.8572367888       -1.2801094329        1.3317998303
 H         -3.9336067779       -2.2507151223        3.4410633302
 H         -1.5861254176       -3.0117495013        3.4969726597
 H         -0.1727211481       -2.8237223208        1.4888937494
 H         -1.1195158990       -1.8646670713       -0.5975143004
 H         -2.0034832502        0.2386136182       -2.2742750903
 H         -4.0407373101        1.2948046775        0.5283683100
 H         -3.1085242703        2.5798047080        2.4346391998
 H         -0.7291942805        3.2212488890        2.4480772692
 C          1.1555423393        2.6962738097        0.5581039689
 H          1.3920928293        3.1061509899        1.5519466388
 C          1.5085159786        3.7667061498       -0.4676811213
 C          0.5745462482        4.2455169094       -1.5349281311
 C          0.8842491680        5.1271563096       -0.3651472412
 H          1.5051549076        5.9970771598       -0.5164738114
 H          0.1096924281        5.2598145493        0.3754508590
 H          1.0002757279        4.4874243195       -2.4970782012
 H         -0.4096820316        3.8084206089       -1.5952901409
 H          2.5599553886        3.7374027803       -0.7351459015
 O          1.9360957194        1.2639599399       -1.9285062312
