  62
        -98.94270301
 C          1.3361374902        1.5962003761        0.3217947328
 C          1.9274872674        1.1014299997       -0.8666887409
 C          2.9501753426        0.0574336328       -0.6875789453
 C          3.2090917016       -0.4161228747        0.5443564285
 C          4.1959117447       -1.5032402347        0.8563530765
 C          3.5452437168       -2.8925429673        0.8181461224
 C          2.7138292652       -3.1525964660       -0.4376626976
 H          2.3305482397       -4.1729364742       -0.3707632658
 H          1.8510113298       -2.4823428283       -0.4389311391
 C          3.4834991290       -2.9888493069       -1.7553776633
 H          4.5571374732       -3.0241124722       -1.5669143703
 H          3.2420668706       -3.8288945469       -2.4101340281
 C          3.1478086612       -1.7118476855       -2.5269941592
 H          2.0638396480       -1.6252836458       -2.6397186416
 H          3.5726785056       -1.7985689543       -3.5307690266
 C          3.6777790492       -0.4077355099       -1.9183200397
 H          4.7464670380       -0.5067787597       -1.7160306839
 H          3.5420295460        0.3827238596       -2.6625841349
 H          4.3338020742       -3.6432046245        0.8958961126
 H          2.8932826162       -2.9916316383        1.6881037531
 H          5.0139966833       -1.4553638008        0.1397357188
 H          4.5935806615       -1.3261434383        1.8570917837
 O          2.5688117847        0.0306220572        1.6538801585
 C          1.6455603352        1.0589153399        1.5747295984
 O          1.1729452072        1.4083660038        2.6737449161
 H         -0.5149926984        0.5356134145       -1.0684339921
 C         -1.3362736831        1.1359621541       -0.7043131810
 C         -1.0777709490        2.2912545210        0.0157414788
 C         -2.1589178218        3.0437658044        0.4645829461
 C         -3.4579578304        2.6512716612        0.1973316223
 C         -3.7104991031        1.4915253182       -0.5151283653
 C         -2.6395132102        0.7321756978       -0.9629390719
 N         -2.8934380162       -0.4845171976       -1.6398894123
 S         -3.4409715639       -1.7204569581       -0.6471161286
 O         -3.4728320754       -2.9075216361       -1.4695937440
 O         -4.6907751791       -1.3118097750       -0.0606093084
 C         -2.1929295735       -1.8879212146        0.6179413700
 C         -2.1229950567       -0.9392050222        1.6199773135
 C         -1.0991395936       -1.0215839557        2.5502478159
 C         -0.1795582181       -2.0559976648        2.4745435675
 C         -0.2751247452       -3.0120211791        1.4752908948
 C         -1.2809603195       -2.9199488054        0.5266105683
 H         -1.3821033119       -3.6339133196       -0.2752202752
 H          0.4327737047       -3.8238153445        1.4287433392
 H          0.6174108087       -2.1068486523        3.2001118557
 H         -1.0056161600       -0.2693853977        3.3172097513
 H         -2.8639893416       -0.1577495461        1.6641330889
 H         -2.0932731749       -0.8163323178       -2.1613254681
 H         -4.7141759062        1.1496040342       -0.7069468561
 H         -4.2837226439        3.2475507928        0.5539214818
 H         -1.9756652713        3.9397243278        1.0372687001
 C          0.3329132509        2.7339920104        0.3313694575
 H          0.3301592721        3.1177767637        1.3614212848
 C          0.7342415224        3.8673445137       -0.5975143709
 C          0.4503060014        5.2884946608       -0.2206313999
 C          1.8582588332        4.7755098737       -0.2023268681
 H          2.5456055084        5.1062468101       -0.9661553807
 H          2.3242888270        4.6013307273        0.7570055023
 H          0.1634777690        5.9781195550       -0.9995507357
 H         -0.0230241283        5.4776463422        0.7307045642
 H          0.6625269710        3.5996712690       -1.6441417946
 O          1.6324131347        1.4935311080       -2.0272315345
