  62
        -98.94428229
 C         -1.8293787671        1.0914946142        0.1363433022
 C         -2.3127623840       -0.0428073827        0.8316252438
 C         -3.7754368740       -0.1884528548        0.8763502518
 C         -4.5504346153        0.7412181325        0.2884967775
 C         -6.0482314180        0.6854878937        0.2117384067
 C         -6.5128183798       -0.0287582793       -1.0653239386
 C         -5.8193169857       -1.3687409278       -1.3113354202
 H         -4.7590345346       -1.1921394968       -1.5061725510
 H         -6.2470719734       -1.7940117145       -2.2217885957
 C         -5.9595157379       -2.3765197532       -0.1619852226
 H         -6.2070281982       -3.3540867601       -0.5810908149
 H         -6.7849137638       -2.0847840972        0.4884248849
 C         -4.6941995859       -2.5599372992        0.6782186342
 H         -3.8426875085       -2.7605261565        0.0227358394
 H         -4.8317383501       -3.4394204884        1.3130884950
 C         -4.3275943080       -1.3866753604        1.5957522258
 H         -3.5315912050       -1.7257719019        2.2654627004
 H         -5.1920807150       -1.1092812410        2.2025333129
 H         -6.3113749457        0.6226372585       -1.9188002415
 H         -7.5916673479       -0.1817747520       -1.0019464375
 H         -6.4326332763        0.1698009757        1.0895334443
 H         -6.4306095568        1.7075551097        0.2053071721
 O         -4.0482615715        1.8263850840       -0.3542908403
 C         -2.6809508787        2.0238291541       -0.4561251121
 O         -2.3533951506        3.0469681038       -1.0902827054
 H          1.7960175844       -0.2296117963        0.8964942896
 C          1.3948368485       -0.5343689392       -0.0552961114
 C          0.3252615758        0.1392262430       -0.6224378736
 C         -0.1696218059       -0.3032184563       -1.8478085499
 C          0.3750548455       -1.4056757241       -2.4748648257
 C          1.4344681093       -2.0855280697       -1.8990883469
 C          1.9412381450       -1.6482005251       -0.6818870001
 N          3.0066483524       -2.3259339992       -0.0765055425
 S          4.1448052484       -1.5187882026        0.8313713817
 O          5.3006829936       -2.3904785927        0.8099893840
 O          3.6283903367       -1.1991262625        2.1382640193
 C          4.5054669652       -0.0162183816       -0.0626165895
 C          4.7378215823       -0.0821102944       -1.4223715474
 C          5.0281175898        1.0852102858       -2.1095144695
 C          5.0865765870        2.2923821311       -1.4298072674
 C          4.8603445753        2.3409880938       -0.0634338016
 C          4.5663825829        1.1763447979        0.6276694040
 H          4.3778036680        1.1687443938        1.6888948490
 H          4.9081352645        3.2792595855        0.4658532529
 H          5.3107086800        3.2000308157       -1.9677254809
 H          5.2064963777        1.0506717272       -3.1721937111
 H          4.6925755887       -1.0332103972       -1.9269379277
 H          3.4032753377       -3.0825995928       -0.6125759872
 H          1.8561797004       -2.9545428785       -2.3807225722
 H         -0.0256378512       -1.7402318279       -3.4198948160
 H         -0.9998187457        0.2276173092       -2.2943286459
 C         -0.3332745232        1.3314424296        0.0259596025
 H         -0.2132566708        2.1954467188       -0.6437398439
 C          0.2339184527        1.6876879459        1.3833582918
 C          1.4449920403        2.5625587500        1.4889460897
 C          0.0983467373        3.0983473477        1.8697751750
 H         -0.1160786151        3.2657683086        2.9146791290
 H         -0.3801983189        3.8050132826        1.2072353327
 H          1.8910681564        2.9117654758        0.5701215967
 H          2.1540611715        2.3595812215        2.2770511786
 H          0.1106529465        0.8940831281        2.1119203153
 O         -1.5663694930       -0.8914179244        1.3861497397
