  62
        -98.94002040
 C          2.5000928698        1.1822385105       -0.0552508087
 C          2.5406136200       -0.0048488894       -0.8256577290
 C          3.8716015500       -0.6025860993       -1.0077474489
 C          4.9456265699       -0.0020588694       -0.4636889886
 C          6.3453350599       -0.5411842393       -0.5122830785
 C          6.6373675698       -1.4315375496        0.7040456514
 C          5.5626545298       -2.4852886396        0.9722729910
 H          5.8895082396       -3.0701592898        1.8347717209
 H          4.6342129597       -1.9846691697        1.2569239110
 C          5.2870641600       -3.4266258194       -0.2085437792
 H          6.1163522001       -3.3865620492       -0.9156597391
 H          5.2290954399       -4.4506572695        0.1661707806
 C          3.9772976601       -3.1489005693       -0.9486642694
 H          3.7768993702       -3.9924195992       -1.6146725896
 H          3.1535122200       -3.0951133795       -0.2320884595
 C          3.9526741402       -1.8751412291       -1.8028971691
 H          3.0460052603       -1.9029768190       -2.4144820093
 H          4.8173579603       -1.8604175890       -2.4693249990
 H          7.5997632598       -1.9224496295        0.5489636614
 H          6.7190147496       -0.7940308597        1.5874073515
 H          7.0392652199        0.3009065607       -0.5103119882
 H          6.4789978601       -1.1080475091       -1.4314329486
 O          4.8685569798        1.1512734105        0.2490336916
 C          3.6482405397        1.7623898004        0.4837988716
 O          3.7155165196        2.7977574703        1.1771428918
 O          1.5224861301       -0.5431712693       -1.3338433793
 C          1.1696295898        1.8590651304        0.2247275512
 C          0.2620088697        0.8927559402        0.9468510908
 C          0.7086097195        0.3319184700        2.1415953508
 C         -0.0745864906       -0.5692610602        2.8351084705
 C         -1.3224359305       -0.9268969901        2.3550073302
 C         -1.7758462603       -0.3765559799        1.1622798303
 C         -0.9877912202        0.5340270703        0.4703449806
 H         -1.3654733501        0.9465954605       -0.4496817794
 N         -3.0203247302       -0.7555816098        0.6354139900
 S         -3.9286024801        0.3560419604       -0.2480877599
 O         -3.4155106299        0.4332719106       -1.5921489298
 O         -4.0222813703        1.6060290502        0.4734076003
 C         -5.5059099101       -0.4762698397       -0.2559881204
 C         -5.6955050799       -1.5161003095       -1.1468384506
 C         -6.9048620199       -2.1924337195       -1.1396392009
 C         -7.8991267101       -1.8202326097       -0.2467846510
 C         -7.6952588502       -0.7734323299        0.6395385592
 C         -6.4871794503       -0.0936066899        0.6386889296
 H         -6.2865922004        0.7306624400        1.3040662698
 H         -8.4712958304       -0.4847840901        1.3299429492
 H         -8.8397173701       -2.3480277198       -0.2438832713
 H         -7.0675392898       -3.0052242894       -1.8289948211
 H         -4.8971202198       -1.7636311793       -1.8270393405
 H         -3.5924337803       -1.2597344599        1.2988432298
 H         -1.9345640906       -1.6340402502        2.8939222200
 H          0.2859046293       -0.9948908703        3.7597114405
 H          1.6843103094        0.6144272699        2.5149191510
 H          1.3891362496        2.6944790103        0.9059659414
 C          0.5752902899        2.4168809906       -1.0504203488
 C         -0.4046068701        3.5482619506       -0.9860355087
 C          0.9796021200        3.7839015407       -1.5099247185
 H          1.1091811502        3.9546925710       -2.5680476984
 H          1.6755902299        4.3299483006       -0.8895728882
 H         -1.2319036700        3.5521023107       -1.6802594789
 H         -0.6543072503        3.9373426004       -0.0101514287
 H          0.4252649001        1.6586784208       -1.8109374990
