  62
        -98.93875484
 C         -1.9553688180       -1.5475211188       -0.0343943427
 C         -1.7425976639       -0.2648418257       -0.5932698852
 C         -2.9187891838        0.6220654586       -0.6394950181
 C         -4.1041675571        0.1731037795       -0.1924820325
 C         -5.4339686847        0.8847864785       -0.1953271941
 C         -5.4498167611        2.3513644687        0.2593911012
 C         -4.3992859034        2.7153706617        1.3186555789
 H         -4.8923525582        3.2356080060        2.1421460802
 H         -3.9501463309        1.8094842099        1.7294379083
 C         -3.2998946546        3.6315006871        0.7763584540
 H         -3.7642266543        4.4012457904        0.1558307290
 H         -2.8194865102        4.1370974180        1.6175548135
 C         -2.1968922134        2.9402112207       -0.0253439058
 H         -1.5647712784        2.3482843520        0.6421472428
 H         -1.5666846357        3.7198424508       -0.4584116645
 C         -2.6733517190        2.0113724560       -1.1535168606
 H         -3.5489370402        2.4160367687       -1.6556111477
 H         -1.8603821448        1.9216143576       -1.8788214405
 H         -5.3204394614        3.0017470353       -0.6046467852
 H         -6.4479576888        2.5490593956        0.6538742089
 H         -5.8541982985        0.8176554068       -1.2029862646
 H         -6.0753139896        0.2909834142        0.4603395311
 O         -4.2641064032       -1.0792592446        0.3234906250
 C         -3.2017948353       -1.9598798277        0.4306786889
 O         -3.4899344076       -3.0579684996        0.9497127795
 H          1.8517944393       -2.2858368950       -0.6775929656
 C          1.6366091812       -1.8209603828        0.2717059998
 C          0.3528756146       -1.8642274288        0.7901544366
 C          0.1135627135       -1.2573251984        2.0205592047
 C          1.1272227599       -0.6122934201        2.7019384511
 C          2.4053227446       -0.5580203928        2.1729620533
 C          2.6560354811       -1.1660416014        0.9514801386
 N          3.9522277229       -1.1115749495        0.4023476166
 S          4.6380843095        0.4059314896        0.2119706421
 O          5.7067688647        0.2169531000       -0.7434822820
 O          5.0262464613        0.9170914098        1.5024461015
 C          3.3468941122        1.4136415007       -0.4894611449
 C          3.0656560398        1.2693409957       -1.8331567386
 C          2.0310928351        2.0057464942       -2.3840312412
 C          1.2940586833        2.8631804843       -1.5834964253
 C          1.5860540852        2.9940926302       -0.2358330205
 C          2.6208547200        2.2610668484        0.3211886494
 H          2.8802320139        2.3364113235        1.3645932118
 H          1.0069849971        3.6591355863        0.3848105124
 H          0.4850922994        3.4314403002       -2.0147826291
 H          1.7960157746        1.9033033569       -3.4313238390
 H          3.6664717534        0.5974749952       -2.4255302146
 H          4.0416453355       -1.6352055674       -0.4570582701
 H          3.2069885113       -0.0499435904        2.6839424804
 H          0.9222868570       -0.1438702239        3.6529950404
 H         -0.8871651632       -1.2904128593        2.4308704183
 C         -0.7971641042       -2.5231329396        0.0696742082
 H         -1.1557018650       -3.3619392046        0.6836606995
 C         -0.4401709742       -3.0454269547       -1.3066690134
 C          0.1934211668       -4.3945877462       -1.4631610497
 C         -1.2319059640       -4.1829546407       -1.8749768610
 H         -1.4694721146       -4.1713270348       -2.9281832902
 H         -2.0142269794       -4.5989469025       -1.2568331813
 H          0.9327515518       -4.5332399310       -2.2379198910
 H          0.3822729578       -4.9658545713       -0.5667972610
 H         -0.1436892301       -2.2553758865       -1.9875731599
 O         -0.6326536224        0.1192007282       -1.0414427895
