  62
        -98.94531952
 C          2.1399618006        0.8664740384        0.0567412555
 C          2.8984643984        0.2739156253        1.0936649289
 C          3.6257775656       -0.9489325174        0.7355509960
 C          3.5003668943       -1.4610301469       -0.5025215718
 C          4.1527216208       -2.7188431287       -1.0092599567
 C          5.5913252205       -2.5196644970       -1.5060744343
 C          6.6316118716       -2.2876007542       -0.4094824846
 H          7.6142718538       -2.3818914243       -0.8756690337
 H          6.5497206971       -3.0759866349        0.3394214430
 C          6.5379917951       -0.9150871330        0.2715682437
 H          5.9418508713       -0.2411989445       -0.3480400152
 H          7.5361774079       -0.4786248898        0.3500114462
 C          5.9453318140       -0.9458058158        1.6803549229
 H          5.8918986293        0.0806309236        2.0518069658
 H          6.6046279849       -1.5101444391        2.3434437122
 C          4.5380730641       -1.5521645839        1.7607373955
 H          4.1236045476       -1.3288370651        2.7470339635
 H          4.5864911748       -2.6340996214        1.6387585656
 H          5.6052495994       -1.6812271206       -2.2062606291
 H          5.8713673737       -3.4190751378       -2.0592634836
 H          4.1378736631       -3.4800407118       -0.2284453097
 H          3.5435351223       -3.0682328671       -1.8459332142
 O          2.7227666440       -0.8859952731       -1.4589881198
 C          2.0419870573        0.2990191942       -1.2140237910
 O          1.3959605456        0.7303680909       -2.1873366614
 H         -0.0874729430        0.1011533217        1.1786317547
 C         -0.6939687711        0.8052545923        0.6210885180
 C         -0.0954741418        1.9461621932        0.1000943288
 C         -0.8854601449        2.8388219158       -0.6117702730
 C         -2.2316585798        2.5815545217       -0.8071084818
 C         -2.8198924086        1.4405341974       -0.2942648305
 C         -2.0403079708        0.5429906735        0.4239164057
 N         -2.6304343845       -0.6156110169        0.9616811623
 S         -3.5296972939       -1.5903612357       -0.0710628129
 O         -3.4762262662       -2.9107726149        0.5191279259
 O         -3.0804893235       -1.4782800440       -1.4393130727
 C         -5.1852550212       -0.9533161568        0.0874674408
 C         -5.7468554255       -0.9072811517        1.3485508918
 C         -7.0352194745       -0.4170944867        1.4894307501
 C         -7.7371616391        0.0135506863        0.3732855403
 C         -7.1607186528       -0.0429804230       -0.8864014028
 C         -5.8716819456       -0.5314803897       -1.0342272664
 H         -5.3799628577       -0.5894297780       -1.9924452024
 H         -7.7077640053        0.2914643693       -1.7531841561
 H         -8.7395924717        0.3953095152        0.4857844432
 H         -7.4868085826       -0.3718589156        2.4673008068
 H         -5.1686065009       -1.2553858511        2.1880413919
 H         -1.9885782107       -1.1789367200        1.5011443641
 H         -3.8658005535        1.2335199370       -0.4510120493
 H         -2.8314366034        3.2803839372       -1.3698982646
 H         -0.4454559337        3.7314918623       -1.0246682306
 C          1.3803042331        2.1493390962        0.3407951962
 H          1.5280007968        2.3441678883        1.4138776821
 C          1.9731562268        3.2980238032       -0.4480298110
 C          1.9037767340        4.6972546920        0.0844846948
 C          3.2109962772        3.9652967518        0.0696211779
 H          3.9677676043        4.2692413325       -0.6379996257
 H          3.6101307225        3.6077587447        1.0077191369
 H          1.4179484069        4.8457531610        1.0368400846
 H          1.7649704719        5.5082214137       -0.6143511663
 H          1.8949407065        3.1494063324       -1.5193867065
 O          2.9567722283        0.7389107461        2.2642120394
