  62
        -98.93937497
 C         -2.0938162237       -0.1590140209       -1.0993283147
 C         -2.9404657294        0.9232271803       -0.7523092457
 C         -4.3386417111        0.5716196979       -0.4522368653
 C         -4.7323066542       -0.7121128157       -0.5188600045
 C         -6.1056918260       -1.2100410232       -0.1754342705
 C         -6.1975438665       -1.6084939640        1.3043084341
 C         -5.6533510249       -0.5501014780        2.2638598570
 H         -4.5764033108       -0.4500305620        2.1097427117
 H         -5.7983171037       -0.9266776352        3.2787937849
 C         -6.3154750333        0.8284087381        2.1299092321
 H         -6.5366670781        1.2088329013        3.1293654903
 H         -7.2653345952        0.7331700476        1.6025506381
 C         -5.4522773874        1.8817015210        1.4331139457
 H         -4.4654510711        1.9136725812        1.9013389520
 H         -5.9190315806        2.8584523505        1.5856409088
 C         -5.2630169361        1.6963044278       -0.0777258374
 H         -4.7997779582        2.6072661163       -0.4677692655
 H         -6.2353656700        1.5718921432       -0.5583721424
 H         -5.6272679931       -2.5288450515        1.4507622609
 H         -7.2427330699       -1.8152022619        1.5417256077
 H         -6.3182679869       -2.0849600685       -0.7921457605
 H         -6.8349321967       -0.4339844951       -0.3996594507
 O         -3.8944394596       -1.7233279397       -0.8649158794
 C         -2.5640456227       -1.4743074485       -1.1521376131
 O         -1.9068659227       -2.4933783275       -1.4479289373
 O         -2.5703615501        2.1231661167       -0.6885332006
 C         -0.6212461990        0.0140522503       -1.4343334259
 C          0.2166931364       -0.0300750060       -0.1813616385
 C         -0.0703079632        0.7909631918        0.9062041397
 C          0.6973251848        0.7289478105        2.0538324376
 C          1.7763440667       -0.1352097737        2.1328630361
 C          2.0762141092       -0.9523932028        1.0506197024
 C          1.2919565590       -0.9016921392       -0.0946697973
 H          1.5333119568       -1.5522920934       -0.9216002760
 N          3.1765596477       -1.8333606673        1.0892316962
 S          4.3986845032       -1.5861453377       -0.0292289448
 O          3.8814125793       -1.7536384051       -1.3620529218
 O          5.4658604056       -2.4746509872        0.3707874053
 C          4.8884295624        0.1087675010        0.2362118036
 C          5.9279532643        0.3784116202        1.1048714966
 C          6.2561705584        1.6987042313        1.3677376866
 C          5.5352226639        2.7213735283        0.7696656130
 C          4.4922043653        2.4343415796       -0.0976585329
 C          4.1629722508        1.1157183440       -0.3685891510
 H          3.3619564910        0.8552918922       -1.0405608237
 H          3.9304708104        3.2278106076       -0.5641647601
 H          5.7877798966        3.7489000370        0.9786383216
 H          7.0688055064        1.9257413498        2.0388563245
 H          6.4634697060       -0.4479340204        1.5438125590
 H          3.5822868989       -1.9329532371        2.0096833433
 H          2.3789329481       -0.1809073835        3.0275630212
 H          0.4604257756        1.3664840857        2.8919412141
 H         -0.8969056581        1.4809509572        0.8343662287
 H         -0.3578988587       -0.8714397035       -2.0342878946
 C         -0.3419538028        1.2460880561       -2.2882286633
 C          0.5925818499        2.3372555152       -1.8663848127
 C          0.9959811092        1.3882061873       -2.9520302175
 H          1.0343229076        1.7463247836       -3.9698101021
 H          1.7402664074        0.6367356297       -2.7276101236
 H          0.3308245977        3.3488967720       -2.1363064943
 H          1.0748718040        2.2530562284       -0.9049748281
 H         -1.2056248361        1.5496542803       -2.8689041086
