  62
        -98.93969402
 C         -2.1174408803       -0.3901667177        0.2419766508
 C         -2.8163268805        0.8320841859        0.0659834323
 C         -4.1767115839        0.7379569267       -0.4777148041
 C         -4.6717035617       -0.4718000468       -0.7958185603
 C         -6.0597854410       -0.7248980115       -1.3069212920
 C         -7.0343163335       -0.9998051975       -0.1531346512
 C         -6.9566592135        0.0252481714        0.9783082889
 H         -7.7080057120       -0.2520452673        1.7208775984
 H         -5.9812018014       -0.0525448164        1.4640306343
 C         -7.1863978058        1.4773172046        0.5363981624
 H         -7.8649055880        1.9561551154        1.2455643975
 H         -7.6726832989        1.4954205527       -0.4395948148
 C         -5.9192925130        2.3332236354        0.4861243787
 H         -5.3788398222        2.2447748704        1.4321221799
 H         -6.2191869859        3.3790856649        0.3783591893
 C         -4.9449889184        2.0170890082       -0.6557761273
 H         -5.4811777022        2.0155128802       -1.6070556905
 H         -4.1962974306        2.8143012534       -0.6843919423
 H         -8.0485030477       -1.0233680310       -0.5558726516
 H         -6.8102069295       -1.9850657138        0.2620702450
 H         -6.3926011350        0.1382767711       -1.8800458958
 H         -6.0315901679       -1.5968396443       -1.9624310898
 O         -3.9667503128       -1.6186475562       -0.6402728268
 C         -2.6777194011       -1.6171369105       -0.1174368064
 O         -2.1729165109       -2.7512037154       -0.0386405083
 H          1.3233765849        1.4789310058        0.7104293593
 C          1.3108317027        0.8074521413       -0.1344762835
 C          0.3251723061       -0.1625214499       -0.2434727606
 C          0.3347408291       -1.0050737750       -1.3515483118
 C          1.3047016207       -0.8704372392       -2.3275632598
 C          2.2954448896        0.0891325821       -2.2076419091
 C          2.2994070744        0.9299142878       -1.1020385750
 N          3.3016239440        1.9077987521       -0.9345190342
 S          4.3182521330        1.7394691791        0.3866742249
 O          3.5442816298        1.7672433853        1.5996365308
 O          5.3226429737        2.7663637365        0.2306037702
 C          5.0577335274        0.1310540579        0.1619176827
 C          6.2780357768        0.0365166744       -0.4782712089
 C          6.8158907381       -1.2186083607       -0.7135642841
 C          6.1224238762       -2.3521346481       -0.3166987889
 C          4.8965954841       -2.2405296853        0.3215777178
 C          4.3557588561       -0.9877927489        0.5639968279
 H          3.4082471313       -0.8648005856        1.0619471957
 H          4.3557086933       -3.1205111816        0.6311291904
 H          6.5395656139       -3.3290703922       -0.5034594726
 H          7.7702352433       -1.3091690895       -1.2068897828
 H          6.7837640791        0.9443161388       -0.7655046791
 H          3.8575875817        2.0629705803       -1.7644028566
 H          3.0563279520        0.1902211998       -2.9669162106
 H          1.2960204474       -1.5266706951       -3.1844307165
 H         -0.4223247052       -1.7701084559       -1.4331099054
 C         -0.7231132053       -0.2929000966        0.8329836432
 H         -0.7235750672        0.6532579379        1.3978959852
 C         -0.4042603939       -1.4111238462        1.8179253671
 C          0.6839538911       -2.4136609404        1.5912043675
 C          0.8567996395       -1.3466907631        2.6281381084
 H          0.8155780510       -1.6253485752        3.6704275336
 H          1.5382963515       -0.5327166514        2.4232813845
 H          1.2565012940       -2.3451341586        0.6793556549
 H          0.5034512030       -3.4268474449        1.9159301158
 H         -1.2911981082       -1.7715354797        2.3278458187
 O         -2.3220824821        1.9541503249        0.3610496031
