  62
        -98.94065268
 C          1.4755928800        1.2092163396       -0.0279787210
 C          2.5352598801        0.9078133994        0.8628787288
 C          3.2896072496       -0.3301109309        0.6051984288
 C          2.9365592590       -1.1142739510       -0.4300308510
 C          3.4770701984       -2.4508466512       -0.8933553209
 C          4.8435884383       -2.9453103717       -0.4251352312
 C          6.0292459185       -2.1109153622       -0.9068526417
 H          6.9358582685       -2.5133206724       -0.4494473619
 H          6.1231684182       -2.2292105524       -1.9893925017
 C          5.9470156791       -0.6151619021       -0.6113026419
 H          6.8638665092       -0.1505809625       -0.9844141322
 H          5.1167928591       -0.1756038619       -1.1680471817
 C          5.8064028497       -0.2455427418        0.8645352081
 H          5.9357652701        0.8371612782        0.9442539079
 H          6.6039968996       -0.7197513920        1.4395684780
 C          4.4550845097       -0.5983471912        1.5123327085
 H          4.4397121594       -1.6278711012        1.8619128787
 H          4.3205005702        0.0463559890        2.3854812885
 H          4.9640009579       -3.9534024118       -0.8313062211
 H          4.8620011486       -3.0378394615        0.6566961088
 H          3.4679986681       -2.4108763614       -1.9872222609
 H          2.7271790282       -3.1959488109       -0.6047614506
 O          1.8966857389       -0.7909304207       -1.2516839508
 C          1.1518564694        0.3668827496       -1.0893898307
 O          0.2593522792        0.5106781598       -1.9466595905
 O          2.8369374206        1.6414698794        1.8409318486
 C          0.6539647305        2.4610185300        0.2375507091
 C         -0.7083875496        2.0057136505        0.6965310895
 C         -0.9115439293        1.6863877008        2.0363027296
 C         -2.1169271694        1.1608151213        2.4634443800
 C         -3.1354688897        0.9144937516        1.5589193403
 C         -2.9349727200        1.2170750213        0.2189511002
 C         -1.7408421799        1.7850851208       -0.2019188602
 H         -1.6005853201        2.0064317506       -1.2476729803
 N         -3.9374055503        0.9020522415       -0.7183484595
 S         -4.5539231009       -0.6531169383       -0.6239011390
 O         -4.9193868814       -1.0094258384       -1.9773937989
 O         -5.6317593406       -0.6774260277        0.3352266812
 C         -3.2201967911       -1.6882594287       -0.0378585692
 C         -2.0200329413       -1.6852437192       -0.7201531396
 C         -0.9865188715       -2.4842838595       -0.2584955697
 C         -1.1668282214       -3.2697044793        0.8690549804
 C         -2.3804121113       -3.2664290487        1.5392124208
 C         -3.4170689411       -2.4681778584        1.0841525809
 H         -4.3740224309       -2.4293086680        1.5788691412
 H         -2.5190065712       -3.8787898185        2.4155923609
 H         -0.3564901116       -3.8855361495        1.2266236903
 H         -0.0431582016       -2.4720705299       -0.7819519400
 H         -1.8804720313       -1.0589097894       -1.5873008597
 H         -3.6695514805        1.1150408312       -1.6689508396
 H         -4.0750205598        0.4842482819        1.8663584606
 H         -2.2620937292        0.9265460915        3.5068323101
 H         -0.1033678791        1.8403273806        2.7371927294
 H          1.1514337009        2.9648305199        1.0764129988
 C          0.6250295105        3.4013420898       -0.9483831211
 C          0.1446827011        4.8076422800       -0.7539369012
 C          1.5975962509        4.5396155894       -1.0035813515
 H          2.0164814707        4.8128498591       -1.9605790417
 H          2.2868359812        4.6491684193       -0.1791916217
 H         -0.4361922590        5.2684827301       -1.5382190211
 H         -0.1538274286        5.0974467403        0.2421454989
 H          0.3904444701        2.9113677797       -1.8852928909
