  62
        -98.94513063
 C         -2.4544917399       -1.1725102595       -0.0683809397
 C         -3.5684584399       -0.8828428598        0.7591537504
 C         -4.5248998101        0.0949263500        0.2308386706
 C         -4.3081389404        0.6566012302       -0.9723981193
 C         -5.2013532607        1.6561627001       -1.6559689491
 C         -4.9745135909        3.1066410401       -1.2079873590
 C         -5.4850393709        3.4425503298        0.1938811211
 H         -5.4621447511        4.5298235598        0.2904157812
 H         -6.5256048408        3.1295322596        0.2849069512
 C         -4.6586388206        2.8288921698        1.3327634709
 H         -3.6858476606        2.5130057901        0.9479693608
 H         -4.4684484707        3.5883499598        2.0944927010
 C         -5.3245997203        1.6432662096        2.0311157309
 H         -6.2331089203        1.9786453394        2.5360863010
 H         -4.6371221801        1.2632383997        2.7909076508
 C         -5.6861968501        0.4820108096        1.0960921908
 H         -5.9461172399       -0.3838880005        1.7097601607
 H         -6.5463460202        0.7470467195        0.4818709509
 H         -5.4894997911        3.7521340300       -1.9233034289
 H         -3.9063518310        3.3284291603       -1.2702149491
 H         -6.2451153906        1.3839204598       -1.4964088391
 H         -4.9831115007        1.5880340502       -2.7239383292
 O         -3.2266774004        0.3519082805       -1.7376785295
 C         -2.2674085301       -0.5531035393       -1.3039643897
 O         -1.3286827402       -0.7182760690       -2.1076986298
 O         -3.7561215896       -1.4213261800        1.8819762504
 C         -1.4240644396       -2.1671578393        0.4403891000
 C         -0.1364122797       -1.4263653391        0.7006331200
 C         -0.0234294698       -0.6511923092        1.8521432201
 C          1.1185106101        0.0872061910        2.0960648401
 C          2.1697475800        0.0756319114        1.1947997000
 C          2.0582761200       -0.6775652485        0.0347185899
 C          0.9171432102       -1.4353612188       -0.1986619601
 H          0.8411305602       -2.0076894487       -1.1094075602
 N          3.1138642299       -0.6969489782       -0.8908283802
 S          3.9001800896        0.7347007820       -1.2679225401
 O          3.0350866393        1.8836527918       -1.1313892499
 O          4.4759029095        0.5139532123       -2.5768484902
 C          5.2161047497        0.8108383822       -0.0685585903
 C          5.4176680495        1.9644715321        0.6633643299
 C          6.4563340296        2.0039449523        1.5808604698
 C          7.2717133698        0.8953857124        1.7483998296
 C          7.0576401800       -0.2550924075        1.0038980794
 C          6.0221920199       -0.3003872777        0.0843081495
 H          5.8240376001       -1.1735695576       -0.5144017605
 H          7.6931657602       -1.1156743474        1.1373056193
 H          8.0782482799        0.9281951425        2.4637330095
 H          6.6239348394        2.8976828822        2.1602284898
 H          4.7547759993        2.8003109520        0.5041747000
 H          2.9079160400       -1.2265532381       -1.7256104503
 H          3.0586312799        0.6582448015        1.3731724199
 H          1.1935904200        0.6801081809        2.9950239801
 H         -0.8511524097       -0.6282965095        2.5474909102
 H         -1.8156917894       -2.5205646295        1.4039451400
 C         -1.2769548294       -3.3527222692       -0.4896001801
 C         -0.5858035991       -4.5889663391        0.0005370497
 C         -2.0678195191       -4.5961757894       -0.2201407702
 H         -2.4627054191       -5.1463808794       -1.0610873902
 H         -2.7148736891       -4.5982208996        0.6446155299
 H          0.0389786309       -5.1383665389       -0.6869979204
 H         -0.2244701790       -4.5848364591        1.0176005597
 H         -1.1410646696       -3.0700252891       -1.5268243301
