  62
        -98.93914801
 C          2.3275346618        1.2648533845       -0.0500059383
 C          3.0223889285        0.4224438900        0.8457044980
 C          3.6213773791       -0.8040324219        0.2853092076
 C          3.4539836188       -1.0623681271       -1.0252696263
 C          3.9156309398       -2.2688146826       -1.7977024453
 C          3.0293969299       -3.5000697843       -1.5435825971
 C          2.6376873453       -3.7231253446       -0.0846678259
 H          2.1208527694       -2.8349872138        0.2863043072
 H          1.9151905996       -4.5436402768       -0.0567256313
 C          3.7884234557       -4.0788862949        0.8543048082
 H          3.3549900803       -4.2694050693        1.8396030773
 H          4.2527906988       -5.0061317305        0.5112753769
 C          4.8812675380       -3.0196605208        1.0093943748
 H          5.5343581845       -3.0049152119        0.1412790025
 H          5.5014194004       -3.3162529469        1.8603772984
 C          4.3736151076       -1.6135667647        1.3144686585
 H          5.2278129729       -0.9938506661        1.6136102472
 H          3.7232894124       -1.6530149298        2.1959384008
 H          3.5452018150       -4.3834249257       -1.9235794432
 H          2.1057233962       -3.3743172450       -2.1145226163
 H          3.8510187312       -2.0082509258       -2.8562771465
 H          4.9556287565       -2.4830085424       -1.5705744474
 O          2.7561913983       -0.2305945265       -1.8495592394
 C          2.1664137559        0.9343887164       -1.3954590626
 O          1.5509657703        1.5748529062       -2.2679275562
 O          3.1296985276        0.6727668120        2.0786871354
 C          1.6559307844        2.5175093030        0.4876553795
 C          0.1625141583        2.3373101683        0.3687763970
 C         -0.6722740888        3.1902578030       -0.3391202838
 C         -2.0240171939        2.9107346076       -0.4524546413
 C         -2.5702434359        1.7845493831        0.1352972185
 C         -1.7445759676        0.9303824159        0.8551412163
 C         -0.3955978498        1.2160299175        0.9725900006
 H          0.2483276676        0.5437977503        1.5277043098
 N         -2.2931805649       -0.2309542759        1.4477759729
 S         -2.7911905984       -1.4069570429        0.3462725322
 O         -2.7809864272       -2.6510433723        1.0857447601
 O         -1.9948156469       -1.3710385760       -0.8602288877
 C         -4.4739768328       -0.9516693492       -0.0094189632
 C         -5.3901951863       -0.9928515284        1.0236274770
 C         -6.7035487573       -0.6335923321        0.7667069517
 C         -7.0757803972       -0.2433677835       -0.5113596831
 C         -6.1441270590       -0.2101390435       -1.5378468256
 C         -4.8280064626       -0.5670869035       -1.2874828458
 H         -4.0663860958       -0.5504059612       -2.0508877918
 H         -6.4351029824        0.0935584184       -2.5306101698
 H         -8.0983899587        0.0365305112       -0.7092645456
 H         -7.4310863549       -0.6583622415        1.5618321019
 H         -5.0576727682       -1.3074355501        1.9986746463
 H         -1.6617050553       -0.6600474373        2.1111022215
 H         -3.6207312631        1.5616794229        0.0429168911
 H         -2.6601923660        3.5784176214       -1.0130076474
 H         -0.2624899441        4.0649424631       -0.8163518230
 H          1.9136682538        2.5511633337        1.5564178227
 C          2.1860210084        3.7641946034       -0.1845817154
 C          2.0776030136        5.0885838954        0.5086348782
 C          3.4124513382        4.4223741980        0.3701052239
 H          4.1299498392        4.8387132596       -0.3207862933
 H          3.8592974424        3.9807462114        1.2489528149
 H          1.8801483057        5.9672154924       -0.0862584939
 H          1.6179767202        5.1038205629        1.4851708427
 H          2.0780403408        3.7371050002       -1.2625453785
