  62
        -98.94849164
 C         -2.3545394670       -0.6277761096        0.1708761617
 C         -1.5440051655       -0.0186012865       -0.8165897438
 C         -1.6896660268        1.4365916790       -0.9659028256
 C         -2.5433286205        2.1006701583       -0.1673615305
 C         -2.7922161636        3.5802374839       -0.2114994384
 C         -1.8793323521        4.3420459020        0.7576980673
 C         -0.3998516691        3.9757129647        0.6371576906
 H         -0.2474716017        2.9489047141        0.9791875050
 H          0.1508657735        4.6201560970        1.3268585950
 C          0.1812385148        4.1256799300       -0.7757227574
 H          1.1571828690        4.6098798465       -0.6990300560
 H         -0.4583648392        4.7744689604       -1.3761655930
 C          0.3996563954        2.7980708341       -1.5038443876
 H          0.9171896374        2.1086466336       -0.8321372626
 H          1.0539640101        2.9798273156       -2.3609850033
 C         -0.8659940607        2.1075688999       -2.0290475614
 H         -0.5525652201        1.3124630273       -2.7118545927
 H         -1.4705811960        2.8238779260       -2.5901272785
 H         -2.2012241719        4.1284284774        1.7797578485
 H         -2.0060410046        5.4118719297        0.5783891724
 H         -2.6358525258        3.9364137858       -1.2281231775
 H         -3.8318538239        3.7587147008        0.0702315474
 O         -3.2758906535        1.4900355864        0.7997322804
 C         -3.1778767116        0.1246155473        1.0106941923
 O         -3.8694434141       -0.2976172826        1.9604447240
 H         -0.3187822882       -1.0373804626        1.8399241161
 C          0.0417557113       -1.8644313678        1.2446552744
 C         -0.8449882605       -2.5690860298        0.4391155453
 C         -0.3557991035       -3.6284301353       -0.3139873999
 C          0.9891155351       -3.9553701995       -0.2733498333
 C          1.8756307633       -3.2192078257        0.4906462743
 C          1.3947073986       -2.1562342481        1.2467426405
 N          2.2571564407       -1.3435428824        2.0140324967
 S          2.3924705540        0.2602784410        1.5399979178
 O          3.3138765908        0.8565334857        2.4841817289
 O          1.0860776015        0.8591963676        1.4606842137
 C          3.1703911194        0.1883762915       -0.0649249890
 C          2.4376913773       -0.2216694977       -1.1611293694
 C          3.0796811153       -0.3250845305       -2.3864654774
 C          4.4279730335       -0.0235195876       -2.4953178498
 C          5.1487340137        0.3844628519       -1.3827860169
 C          4.5168172642        0.4872103232       -0.1545943445
 H          5.0334147559        0.8018959172        0.7378638660
 H          6.1971993783        0.6207467139       -1.4679445341
 H          4.9186397350       -0.1060501635       -3.4523863884
 H          2.5119963887       -0.6431910559       -3.2461331144
 H          1.3861177963       -0.4459456793       -1.0645416508
 H          3.1853375624       -1.7296200703        2.1241852283
 H          2.9294317087       -3.4546662485        0.4980692730
 H          1.3548935059       -4.7812858289       -0.8641087820
 H         -1.0213369433       -4.1857940413       -0.9522709520
 C         -2.2866622143       -2.1220186641        0.4426810508
 H         -2.6715557106       -2.2411336111        1.4697473908
 C         -3.1828250885       -2.9594195097       -0.4584453277
 C         -4.4041866549       -2.3712996395       -1.0980388525
 C         -3.2287239877       -2.7571021361       -1.9421298436
 H         -3.3193288817       -3.6267267061       -2.5763600282
 H         -2.6130056076       -1.9742792359       -2.3552354293
 H         -4.5989668974       -1.3208527605       -0.9357953539
 H         -5.2969844213       -2.9767278245       -1.1459954570
 H         -3.2787916359       -3.9796509387       -0.0998940324
 O         -0.7462644361       -0.6521512990       -1.5561628122
