  62
        -98.94487584
 C         -2.6435747888       -0.3090000769       -0.0042942977
 C         -2.4513510214       -1.4236907363       -0.8535049299
 C         -1.7776022629       -2.5782500161       -0.2520088886
 C         -1.3924124928       -2.5278336346        1.0364573085
 C         -0.6481375549       -3.6045596436        1.7776859627
 C          0.8693455189       -3.5510296853        1.5473431962
 C          1.3359909356       -4.0653068239        0.1840062886
 H          2.4158621089       -4.2129663670        0.2510280056
 H          0.8849850928       -5.0388879696       -0.0127373119
 C          1.0402274541       -3.1099006153       -0.9809088258
 H          0.8425951785       -2.1117906003       -0.5806009793
 H          1.9229924077       -3.0327686768       -1.6213505665
 C         -0.1231659261       -3.5379395959       -1.8763419011
 H         -0.2747765393       -2.7652386834       -2.6347983381
 H          0.1345110261       -4.4671880827       -2.3899110588
 C         -1.4530063401       -3.7425724376       -1.1398063627
 H         -1.4244462314       -4.6644160313       -0.5597506866
 H         -2.2475567579       -3.8215820000       -1.8862447375
 H          1.2004171331       -2.5169413862        1.6776947766
 H          1.3410041446       -4.1567926477        2.3248298105
 H         -0.8426066212       -3.4434138936        2.8400925247
 H         -1.0315319295       -4.5861163277        1.4967915142
 O         -1.6481887201       -1.4601402336        1.8368751101
 C         -2.2238853834       -0.3081739062        1.3272728956
 O         -2.3284864916        0.6225622999        2.1501183071
 O         -2.8047396295       -1.4421107203       -2.0648978301
 C         -3.1695366285        0.9870383811       -0.5995558456
 C         -2.0648246330        2.0106012823       -0.4886096003
 C         -2.2271962587        3.2880109131        0.0295451735
 C         -1.1322536658        4.1174272038        0.2117259956
 C          0.1449913545        3.6900115359       -0.1037712927
 C          0.3099138729        2.4277587245       -0.6540448648
 C         -0.7871227669        1.6130441402       -0.8638293288
 H         -0.6408923336        0.6217469367       -1.2768941411
 N          1.6255766365        1.9383110557       -0.9106117019
 S          2.1798231693        1.1421168726        0.4854885706
 O          1.4259707009       -0.0737513707        0.7029621216
 O          2.1883289808        2.0999909126        1.5613892472
 C          3.8537818446        0.7441707325        0.0168161985
 C          4.1938656591       -0.5613220810       -0.2785403820
 C          5.4938739192       -0.8424461157       -0.6699773580
 C          6.4234317765        0.1819959026       -0.7623460808
 C          6.0656655471        1.4885567688       -0.4631650676
 C          4.7686712354        1.7759411019       -0.0699806278
 H          4.4450050455        2.7725844745        0.1793215929
 H          6.7918567886        2.2819965702       -0.5352495834
 H          7.4338488005       -0.0396286669       -1.0676665117
 H          5.7744510800       -1.8574882233       -0.9009648367
 H          3.4383988747       -1.3257161064       -0.1884547022
 H          1.6048828747        1.2415416788       -1.6469746230
 H          1.0100861301        4.3035621934        0.0861225028
 H         -1.2750465050        5.1014367083        0.6319368732
 H         -3.2092945636        3.6259877834        0.3182488423
 H         -3.3496072847        0.7726029563       -1.6635859571
 C         -4.4693092588        1.4158028719        0.0431329501
 C         -5.4423926194        2.2627497661       -0.7203582560
 C         -5.7531286983        0.8220123817       -0.4513366700
 H         -6.5203539858        0.5829980348        0.2694917445
 H         -5.6912739662        0.1217440135       -1.2714614695
 H         -6.0012673416        3.0148650335       -0.1845118006
 H         -5.1766144383        2.5435473223       -1.7281938474
 H         -4.3700026908        1.5791666956        1.1102445950
