  62
        -98.94109298
 C         -2.4710425300       -1.3598198698       -0.0626238585
 C         -3.3083020401       -0.7940397894        0.9349116313
 C         -4.2461941802        0.2460189103        0.4951117309
 C         -4.2652650603        0.6041143796       -0.8012671193
 C         -5.1379310705        1.6769230492       -1.3840758498
 C         -4.4348853107        3.0412815393       -1.3646262105
 C         -3.8193862007        3.4009953401       -0.0121633707
 H         -2.9988146106        2.7116448903        0.2025318496
 H         -3.3803954408        4.3965305101       -0.1091824712
 C         -4.8107969206        3.3905335505        1.1599472494
 H         -4.6454461307        4.2844470408        1.7648800390
 H         -5.8323621606        3.4395900602        0.7812665794
 C         -4.6737201104        2.1878711310        2.0954852700
 H         -5.2579932504        2.3904265413        2.9969870099
 H         -3.6295421303        2.0785449913        2.4000133600
 C         -5.1550328102        0.8454748006        1.5308593206
 H         -5.1812719101        0.1281643510        2.3563005510
 H         -6.1676520903        0.9543576003        1.1370334707
 H         -5.1586386308        3.8063744991       -1.6514710808
 H         -3.6368106708        3.0317928791       -2.1108627305
 H         -6.0663607905        1.7275146994       -0.8184654897
 H         -5.3660197106        1.4108574287       -2.4176142696
 O         -3.4488893003        0.0467210193       -1.7290859891
 C         -2.5283214702       -0.9390984204       -1.3915704387
 O         -1.8506069002       -1.3332625708       -2.3598995685
 O         -3.2800090699       -1.1572847688        2.1412101515
 C         -1.5259617299       -2.4601948194        0.3907967020
 C         -0.1481851599       -1.9204738891        0.6773718617
 C          0.4556440802       -2.1180576984        1.9134523017
 C          1.7188435701       -1.6125952781        2.1685528814
 C          2.4068091800       -0.9076005185        1.1972554310
 C          1.8083638799       -0.6963213092       -0.0382322790
 C          0.5399643899       -1.1993697295       -0.2893226787
 H          0.0771973898       -1.0321807900       -1.2511357288
 N          2.5014313397        0.0061775804       -1.0399990994
 S          3.1742727595        1.4914756707       -0.6396115102
 O          2.4478396395        2.1288679811        0.4349361696
 O          3.2553616194        2.2226206001       -1.8851486805
 C          4.8213153796        1.0750324712       -0.1053243101
 C          5.2692177497        1.4823957119        1.1359719797
 C          6.5580086797        1.1510042622        1.5250927998
 C          7.3714904898        0.4230798019        0.6703538701
 C          6.9074138997        0.0240112113       -0.5743905497
 C          5.6207678497        0.3529396609       -0.9698570298
 H          5.2229466597        0.0657735404       -1.9288837596
 H          7.5429062798       -0.5415778590       -1.2366518595
 H          8.3732180498        0.1652709922        0.9759181801
 H          6.9206086197        1.4608732227        2.4920151296
 H          4.5989703196        2.0419463521        1.7690858395
 H          1.9884507197        0.0695037999       -1.9081283194
 H          3.3914452899       -0.5136360283        1.3889589708
 H          2.1745415802       -1.7715415576        3.1338492115
 H         -0.0788775897       -2.6582785581        2.6810859720
 H         -1.9491631398       -2.8032849390        1.3480939722
 C         -1.5162340798       -3.6569541299       -0.5524141374
 C         -0.3307509397       -4.0744602701       -1.3651028273
 C         -0.7491053496       -4.8922539296       -0.1826749369
 H         -1.2053738494       -5.8559771997       -0.3499436064
 H         -0.1296349195       -4.8414741791        0.7001113931
 H         -0.5181832498       -4.4562212306       -2.3572249971
 H          0.5755130702       -3.4951015399       -1.2884129576
 H         -2.4864135798       -3.8090809802       -1.0152228273
