  62
        -98.94078770
 C         -1.6882995909       -0.5625568404        0.1653778708
 C         -2.8710179409       -1.1996034801        0.6222360313
 C         -4.1009760409       -0.8883806909       -0.1138132292
 C         -4.0574198708       -0.0328601719       -1.1507524400
 C         -5.2171451508        0.3581579172       -2.0261918205
 C         -6.0786999210        1.4918069076       -1.4535666016
 C         -6.9583229310        1.1022746487       -0.2648890514
 H         -7.6616854011        1.9218783487       -0.1049360522
 H         -7.5423031009        0.2178138884       -0.5213454406
 C         -6.1861289612        0.8525331700        1.0381513390
 H         -6.6889812313        1.3626974607        1.8628326884
 H         -5.1863052412        1.2854717400        0.9567399187
 C         -6.0581581211       -0.6203477697        1.4271818904
 H         -5.4643849512       -0.6827031287        2.3425971805
 H         -7.0479815610       -1.0303371496        1.6393708406
 C         -5.3836431009       -1.4986131106        0.3651552513
 H         -5.1442539008       -2.4629803901        0.8198318922
 H         -6.0616298307       -1.6645230415       -0.4718421487
 H         -6.7272918109        1.8460298968       -2.2581624020
 H         -5.4231170811        2.3177945580       -1.1677970423
 H         -4.7906204707        0.6949710863       -2.9736498707
 H         -5.8421798707       -0.5147590631       -2.2171450497
 O         -2.9099015709        0.5804993279       -1.5421068304
 C         -1.7039908809        0.3579987886       -0.8837260101
 O         -0.7597341509        1.0343006783       -1.3317100306
 H          2.0598420190       -0.0242983202       -0.0243778593
 C          1.6113122989        0.6629863504        0.6719989400
 C          0.3594341289        0.3966497408        1.2036660801
 C         -0.2178919913        1.3327931615        2.0577938892
 C          0.4358749985        2.5116342519        2.3573464281
 C          1.6857931086        2.7741081315        1.8252364380
 C          2.2755593687        1.8432041007        0.9777630790
 N          3.5664035288        2.0639352004        0.4873907189
 S          4.2132079090        1.2942349392       -0.8396982303
 O          5.4808174790        1.9673640092       -1.0382936108
 O          3.3278540191        1.2846878881       -1.9795929604
 C          4.5193887091       -0.3692881302       -0.2812734487
 C          4.3328681593       -1.4113942711       -1.1676675577
 C          4.5864055994       -2.7071312906       -0.7458830965
 C          5.0237429593       -2.9366948994        0.5493445938
 C          5.2136850391       -1.8787054185        1.4252688628
 C          4.9629243090       -0.5808542890        1.0090659616
 H          5.0964657088        0.2627851017        1.6651847408
 H          5.5541649190       -2.0615711676        2.4317020330
 H          5.2162931293       -3.9461582891        0.8767877947
 H          4.4396499695       -3.5304276313       -1.4270362157
 H          3.9808758394       -1.1852992120       -2.1622467680
 H          3.9478280187        2.9852985706        0.6357191581
 H          2.1995158584        3.6941496918        2.0586637972
 H         -0.0287732216        3.2341345224        3.0115540174
 H         -1.1955436414        1.1278010618        2.4728702693
 C         -0.3978920410       -0.8712036896        0.9032110512
 H         -0.7312019710       -1.2998565287        1.8635969816
 C          0.4607350692       -1.9333814101        0.2326585123
 C         -0.1624962906       -3.0383028209       -0.5649007667
 C          0.6559503494       -1.9883443515       -1.2515049676
 H          1.6306999594       -2.2612488918       -1.6279038272
 H          0.1542296694       -1.2451768321       -1.8520297484
 H          0.2487624595       -4.0319521908       -0.4725263757
 H         -1.2344575106       -3.0184547912       -0.6966285268
 H          1.3168288092       -2.2056397395        0.8432125027
 O         -2.8961189309       -1.9922118292        1.6005320320
