  62
        -98.93785096
 C          2.5851504873        1.1587547729        0.5093437904
 C          3.4403661355        0.8517685595       -0.5781151229
 C          4.5643703312       -0.0493361012       -0.2715886381
 C          4.7231435187       -0.5164737963        0.9790361521
 C          5.7849349574       -1.4867365659        1.4070064359
 C          5.2923884413       -2.9359483952        1.2892695372
 C          4.6475074032       -3.2614551134       -0.0580386611
 H          3.7239488312       -2.6866792305       -0.1594954157
 H          4.3676597638       -4.3169344324       -0.0373890838
 C          5.5466119804       -2.9947205153       -1.2733638583
 H          5.4740091458       -3.8443311305       -1.9556314543
 H          6.5874441635       -2.9230625639       -0.9556043171
 C          5.1749071132       -1.7464725113       -2.0758612803
 H          4.1091910000       -1.7701926461       -2.3166640762
 H          5.7245305476       -1.7737432981       -3.0205340420
 C          5.4871651621       -0.4032859981       -1.4040318036
 H          5.3548875776        0.3814345106       -2.1546792715
 H          6.5273458285       -0.3899588155       -1.0725099541
 H          4.5539924296       -3.1152026110        2.0742419114
 H          6.1392223344       -3.6030646991        1.4604798299
 H          6.0382555795       -1.2818229236        2.4485632836
 H          6.6714325928       -1.3419013240        0.7926514418
 O          3.8895760288       -0.1894969090        1.9999760162
 C          2.8026384966        0.6391564257        1.7884258830
 O          2.1134740238        0.8484542931        2.8079918857
 O          3.2923473225        1.2923619800       -1.7459794597
 C          1.3677719971        2.0603623818        0.3785134412
 C          0.1686964381        1.2536366981       -0.0491792915
 C          0.1873095667        0.4948954288       -1.2159411912
 C         -0.9203971839       -0.2447533661       -1.5869090564
 C         -2.0619792603       -0.2515144887       -0.8038102078
 C         -2.0900791204        0.4981973580        0.3639119812
 C         -0.9784525837        1.2473750729        0.7301336985
 H         -0.9998914854        1.8215781151        1.6470491533
 N         -3.2370450848        0.4775727857        1.1734782508
 S         -4.7349002485        0.7271484980        0.4591322724
 O         -4.6235569462        1.5565508856       -0.7180695085
 O         -5.5792490750        1.2269732734        1.5217694257
 C         -5.2745057543       -0.9082096818        0.0082450765
 C         -5.6454071773       -1.1757035975       -1.2950173266
 C         -6.0709504557       -2.4540228679       -1.6216796674
 C         -6.1188644337       -3.4360953682       -0.6441375054
 C         -5.7461907967       -3.1500824642        0.6610781561
 C         -5.3205460732       -1.8741761935        0.9943308174
 H         -5.0247411612       -1.6115807788        1.9964505793
 H         -5.7851016199       -3.9164673507        1.4184364293
 H         -6.4490983925       -4.4303581808       -0.9006374219
 H         -6.3616599437       -2.6781565930       -2.6354969371
 H         -5.5865943321       -0.3821505205       -2.0229741905
 H         -3.1471936313        1.0080650703        2.0277508867
 H         -2.9254295797       -0.8300341714       -1.0887358727
 H         -0.8943866270       -0.8271479389       -2.4955134979
 H          1.0777908878        0.4971284489       -1.8260771012
 H          1.1733247696        2.4240639666        1.3999738736
 C          1.6198669824        3.2843458990       -0.4920941846
 C          0.9271322893        3.5461061844       -1.7923052382
 C          0.5746463648        4.3571691031       -0.5842435264
 H          0.8838894067        5.3904133998       -0.5390121740
 H         -0.3792842896        4.1616047050       -0.1161801720
 H          1.5040350043        4.0071772505       -2.5793228153
 H          0.2058465120        2.8270244917       -2.1468545366
 H          2.6494507187        3.6202572305       -0.4259009773
