  62
        -98.94059223
 C         -2.6165261097       -0.4744626604       -0.4456656202
 C         -3.0153321399        0.3868750001        0.6106153594
 C         -2.9186914499        1.8284512500        0.3584469789
 C         -2.4888635997        2.2547835295       -0.8424052412
 C         -2.3118171996        3.6927612093       -1.2331669618
 C         -0.8797805197        4.1729330595       -0.9625975718
 C         -0.3667449299        3.8428755600        0.4395950985
 H         -0.2372223499        2.7607236701        0.5300450589
 H          0.6302403201        4.2808524801        0.5296219284
 C         -1.2536088001        4.3585873805        1.5816863481
 H         -0.6101561902        4.7968521208        2.3475300180
 H         -1.9070473601        5.1507713603        1.2136224877
 C         -2.0966517202        3.2859354707        2.2746343284
 H         -2.4844547704        3.7083503611        3.2056590682
 H         -1.4585740302        2.4380029809        2.5399746288
 C         -3.2958453601        2.7573360904        1.4769344184
 H         -3.9178215602        2.1698790007        2.1585763485
 H         -3.8889064100        3.5946482103        1.1036251580
 H         -0.2117210096        3.6974330292       -1.6843295015
 H         -0.8430345997        5.2526436194       -1.1209097722
 H         -2.5204327194        3.7862612089       -2.3004773419
 H         -3.0220283497        4.3029106595       -0.6785375522
 O         -2.1298467095        1.4060790591       -1.8355084808
 C         -2.1290184495        0.0308237592       -1.6506845303
 O         -1.6808736593       -0.5946311712       -2.6343761700
 O         -3.4403781101       -0.0405886395        1.7180399995
 C         -2.6498711197       -1.9632768502       -0.1376433696
 C         -1.3269901798       -2.3708530400        0.4680274408
 C         -1.2547252700       -3.0364030995        1.6854463511
 C         -0.0294997701       -3.3164672092        2.2666078814
 C          1.1469692400       -2.9190176695        1.6560714515
 C          1.0816204302       -2.2654151600        0.4346821712
 C         -0.1428116597       -2.0154057602       -0.1611433691
 H         -0.1768330496       -1.4966395506       -1.1086563793
 N          2.2813931403       -1.7685669302       -0.1533851888
 S          2.5928723501       -0.2207007399        0.4745172406
 O          2.6397278299       -0.3298468893        1.9107184407
 O          1.6525424102        0.7384776198       -0.0657339299
 C          4.2292148802        0.0944819098       -0.1583548293
 C          5.2904886502       -0.5826240599        0.4111302512
 C          6.5651470902       -0.3699613001       -0.0881795987
 C          6.7558781404        0.5103987395       -1.1431619690
 C          5.6805181205        1.1817892092       -1.7044788295
 C          4.4021698704        0.9719034594       -1.2105372196
 H          3.5366350405        1.4751696592       -1.6117711799
 H          5.8307612606        1.8667702989       -2.5234235797
 H          7.7490618605        0.6761291293       -1.5296091189
 H          7.4041920402       -0.8894109799        0.3456543217
 H          5.0935180600       -1.2498266996        1.2334556814
 H          2.1606411704       -1.6519865906       -1.1532082589
 H          2.1057889499       -3.0839383593        2.1187428217
 H          0.0080394297       -3.8272169488        3.2167072816
 H         -2.1686830301       -3.3067724393        2.1936075111
 H         -3.4202564999       -2.0853925699        0.6362463004
 C         -3.0063592695       -2.8475819407       -1.3145147393
 C         -3.5831481296       -4.2057065906       -1.0539651888
 C         -4.4479052895       -3.1195742409       -1.6180443994
 H         -4.7513560493       -3.1803890513       -2.6521209494
 H         -5.1871922996       -2.6684586806       -0.9723155497
 H         -3.2919221394       -5.0190317109       -1.7003901984
 H         -3.7402915397       -4.4948088002       -0.0260455687
 H         -2.3341853294       -2.7368594910       -2.1550405592
