  62
        -98.93309305
 C         -2.4257639181       -1.0188974174        0.3888122187
 C         -2.6860358895        0.1606309580        1.1325374564
 C         -4.0104112192        0.7820796198        0.9642696677
 C         -4.8994808717        0.2004888051        0.1409903700
 C         -6.2782130926        0.6837512840       -0.2150953822
 C         -6.2425521326        1.5341434933       -1.4962260223
 C         -5.9612339536        3.0198168053       -1.2755249063
 H         -5.8360040234        3.4765829173       -2.2598685887
 H         -6.8314554783        3.4840672670       -0.8068975383
 C         -4.7251337122        3.3329014716       -0.4282519852
 H         -3.9001482266        2.6819590484       -0.7242321319
 H         -4.4202599270        4.3583506959       -0.6460958786
 C         -4.9784629643        3.2005564401        1.0808983148
 H         -6.0509549782        3.1212938346        1.2571872376
 H         -4.6481983418        4.1114335905        1.5846119544
 C         -4.2553669192        2.0316916510        1.7656365041
 H         -3.2592801939        2.3555470872        2.0839355750
 H         -4.7990405248        1.7602388962        2.6769374754
 H         -5.4833266101        1.1098764040       -2.1581940133
 H         -7.2054591463        1.4442685585       -2.0029925394
 H         -6.8789990403       -0.2077289993       -0.4062757542
 H         -6.7195112746        1.2335502580        0.6107572836
 O         -4.6162394127       -0.9374787209       -0.5463513087
 C         -3.3883364956       -1.5710492124       -0.4565228338
 O         -3.3077697479       -2.5925392696       -1.1664421509
 H          1.2223746742       -0.2049828900        0.7248808414
 C          1.0297045341       -0.5484689676       -0.2812931264
 C         -0.1134309094       -1.2839179100       -0.5578653970
 C         -0.3462209865       -1.6943408458       -1.8667826916
 C          0.5533023078       -1.3773349985       -2.8679073873
 C          1.7067663359       -0.6674329824       -2.5837911138
 C          1.9438303091       -0.2455750943       -1.2809813628
 N          3.0931477229        0.4949249946       -0.9624202756
 S          3.8184167395        0.2303912706        0.5400236746
 O          3.8354679713       -1.1841324380        0.8371034512
 O          3.1888196487        1.0811514128        1.5184144017
 C          5.4715203513        0.8126920819        0.2111602006
 C          6.4520275832       -0.0968612041       -0.1377393106
 C          7.7269708551        0.3676139473       -0.4205372284
 C          7.9973263142        1.7261708398       -0.3535484029
 C          7.0030590990        2.6267906792       -0.0008672433
 C          5.7265374236        2.1691636073        0.2847529054
 H          4.9250106461        2.8292517161        0.5730712585
 H          7.2178194816        3.6818024477        0.0538801014
 H          8.9901622706        2.0852309819       -0.5739476107
 H          8.5029123431       -0.3301279435       -0.6912241993
 H          6.1975691482       -1.1441325892       -0.1683535991
 H          3.7713736803        0.5128413136       -1.7117985494
 H          2.4145265092       -0.4351140832       -3.3651067269
 H          0.3609508041       -1.6999784902       -3.8801361464
 H         -1.2400237684       -2.2564805009       -2.0891222507
 C         -1.0546083904       -1.6467872610        0.5666182913
 H         -0.6508669850       -1.1976621282        1.4849597263
 C         -1.0896692347       -3.1525746153        0.7493485766
 C          0.1222057155       -3.8343613114        1.3079025543
 C         -1.1246931046       -3.7255483657        2.1324390890
 H         -1.7083236420       -4.6172203763        2.3056048938
 H         -1.1287392068       -3.0323553763        2.9613105146
 H          0.3949745746       -4.8016724714        0.9146408856
 H          0.9678528736       -3.2150220725        1.5714677190
 H         -1.6493661082       -3.6679296635       -0.0200516980
 O         -1.8403390763        0.6773520708        1.9135499248
