  62
        -98.92949147
 C          2.3743980349        0.9868671132        0.4823052986
 C          3.2297062380        0.6713444266       -0.5993174240
 C          4.3945488377       -0.1868097007       -0.2894652121
 C          4.5819739254       -0.6170967996        0.9699742039
 C          5.6758116445       -1.4980835681        1.5190905305
 C          7.1075236405       -1.1950055977        1.0509697660
 C          7.6777050180       -2.2574540532        0.1096564731
 H          8.7681306756       -2.2237497688        0.1645821857
 H          7.3642370559       -3.2409813367        0.4658450210
 C          7.2840116892       -2.1031501277       -1.3583679844
 H          7.6325875116       -2.9923152942       -1.8890546019
 H          7.8080122828       -1.2448789263       -1.7846385822
 C          5.7861412413       -1.9319312118       -1.6191287525
 H          5.2082689754       -2.5956544946       -0.9770745237
 H          5.5901212109       -2.2357520884       -2.6496223656
 C          5.2952084401       -0.4854433628       -1.4572936114
 H          6.1493952732        0.1971454381       -1.4267420842
 H          4.7115019390       -0.1954159575       -2.3365123370
 H          7.1445207478       -0.2131251781        0.5817007311
 H          7.7446413917       -1.1534752168        1.9359740466
 H          5.6090522263       -1.3867987808        2.6037808419
 H          5.4261247859       -2.5388051878        1.2979785510
 O          3.7187901392       -0.3016661370        1.9790329565
 C          2.6111189414        0.4931481229        1.7669668420
 O          1.9236191929        0.6988029534        2.7883084858
 O          3.0508277345        1.0721400878       -1.7775786760
 C          1.1439656207        1.8688392292        0.3450509461
 C         -0.0575084538        1.0486093176       -0.0480656156
 C         -0.0432567271        0.2398634382       -1.1804111586
 C         -1.1597993325       -0.4991986197       -1.5259844021
 C         -2.3059202716       -0.4550166069       -0.7509854498
 C         -2.3289211604        0.3434415708        0.3840822307
 C         -1.2083879455        1.0907652963        0.7248356796
 H         -1.2266554212        1.7042062103        1.6161290600
 N         -3.4835374995        0.3765745561        1.1842847110
 S         -4.9568929094        0.6921612355        0.4421672996
 O         -4.7832004141        1.4964887492       -0.7449694592
 O         -5.7909710738        1.2513175192        1.4832217366
 C         -5.5748121193       -0.9190517500        0.0053916628
 C         -5.7378928910       -1.8500734099        1.0124116352
 C         -6.2257852953       -3.1060735036        0.6892063637
 C         -6.5431183556       -3.4070997973       -0.6271141869
 C         -6.3773816933       -2.4599637490       -1.6259478263
 C         -5.8889128077       -1.2018095106       -1.3094411038
 H         -5.7397940410       -0.4352229452       -2.0531884593
 H         -6.6253946934       -2.6956723242       -2.6484113266
 H         -6.9225031786       -4.3856893835       -0.8756978369
 H         -6.3567845157       -3.8451761210        1.4631200472
 H         -5.4837888388       -1.5754142870        2.0226317728
 H         -3.3809067358        0.9246756411        2.0261710967
 H         -3.1764481478       -1.0323864770       -1.0162254972
 H         -1.1371885549       -1.1201635683       -2.4087178513
 H          0.8500387125        0.2035762226       -1.7852446165
 H          0.9597502342        2.2552946095        1.3603169274
 C          1.3695767420        3.0755234806       -0.5564773870
 C          0.6968334553        3.2738359301       -1.8779651284
 C          0.2894887535        4.1070002641       -0.7025678321
 H          0.5614412486        5.1514996546       -0.6822498105
 H         -0.6676390104        3.8915720273       -0.2498339342
 H          1.2746256218        3.7312829115       -2.6663938097
 H          0.0099699119        2.5186103267       -2.2254051346
 H          2.3854473462        3.4493098234       -0.4791083297
