  62
        -98.94904522
 C          1.9304463212        0.9061623018       -0.1996867801
 C          2.6458157722       -0.0082310324        0.6091859052
 C          2.7678648895       -1.3716513928        0.0806293783
 C          2.2042645227       -1.6820699066       -1.1007432481
 C          2.2335269795       -3.0277088662       -1.7724757603
 C          1.1664683869       -4.0013489809       -1.2537822241
 C          1.4447011498       -4.5968639447        0.1269659017
 H          0.7570448303       -5.4349007720        0.2577932568
 H          2.4581903656       -4.9994727338        0.1530222738
 C          1.2476779581       -3.6205196073        1.2947653582
 H          0.6980982694       -4.1195785434        2.0970201604
 H          0.6261619143       -2.7784661113        0.9804053003
 C          2.5413341286       -3.0836464396        1.9079377842
 H          2.2702404555       -2.3598962358        2.6812666582
 H          3.0862930355       -3.9007297933        2.3874990554
 C          3.4828566577       -2.3911162071        0.9148301459
 H          4.2542717762       -1.8681833149        1.4864333183
 H          3.9637372195       -3.1324855882        0.2763661957
 H          0.2002759016       -3.4905031522       -1.2368078625
 H          1.0977519748       -4.8221969867       -1.9714960701
 H          3.2215744302       -3.4749066619       -1.6594986532
 H          2.0514126245       -2.8490689930       -2.8343013766
 O          1.5341617649       -0.7712400611       -1.8546013032
 C          1.3711107719        0.5396195478       -1.4225216351
 O          0.7248912644        1.2588849311       -2.2068636723
 O          3.1628172308        0.3029921049        1.7165599375
 C          1.7199339828        2.3264081405        0.2912941695
 C          0.2422068937        2.6082141788        0.4200259326
 C         -0.3637391919        3.7574793290       -0.0705781362
 C         -1.7266015122        3.9485506822        0.0782870924
 C         -2.5102309528        3.0021616898        0.7115086387
 C         -1.9124779478        1.8535052040        1.2190765193
 C         -0.5461411257        1.6713009550        1.0784934272
 H         -0.0906276496        0.7771615038        1.4796595173
 N         -2.6789487401        0.8860115264        1.8964233512
 S         -2.5742558401       -0.7248566535        1.4616661075
 O         -3.6360005454       -1.3686177941        2.2042175487
 O         -1.2414455299       -1.2170882237        1.6899359533
 C         -2.9569991306       -0.7501765969       -0.2770830350
 C         -1.9244750711       -0.6274022393       -1.1823677120
 C         -2.2160887641       -0.5700106978       -2.5352125253
 C         -3.5350073824       -0.6392025804       -2.9563431483
 C         -4.5639050745       -0.7694355809       -2.0346412145
 C         -4.2765277033       -0.8188611046       -0.6803341543
 H         -5.0441095188       -0.9252410147        0.0691709810
 H         -5.5874664499       -0.8268217072       -2.3684167418
 H         -3.7599981741       -0.5923653108       -4.0101667221
 H         -1.4057573611       -0.4542483148       -3.2376432216
 H         -0.9106324992       -0.5735774357       -0.8196306938
 H         -3.6491384218        1.1438091965        2.0117775261
 H         -3.5740508958        3.1493351828        0.8205271367
 H         -2.1855480521        4.8440147341       -0.3120719514
 H          0.2298951352        4.5026193368       -0.5736786892
 H          2.1621254962        2.3562120762        1.2987557173
 C          2.4545771349        3.3123110092       -0.5926595543
 C          2.9506686794        4.6092937870       -0.0286453519
 C          3.9220817735        3.5226193387       -0.3757059462
 H          4.5578255281        3.6518164812       -1.2387256519
 H          4.3872245590        2.9725670823        0.4295177075
 H          2.9233350496        5.4883968043       -0.6546230592
 H          2.7625719713        4.8046151441        1.0162959948
 H          2.0978506594        3.2992062343       -1.6163403566
