  62
        -98.93895788
 C          1.8228342936        0.8640821562        0.4272213329
 C          2.4721194882        0.2889668501       -0.6893286203
 C          3.5677608614       -0.6552321583       -0.3974643494
 C          3.8736128238       -0.9413902267        0.8817236355
 C          4.8994617345       -1.8838757807        1.4765786612
 C          6.0170406088       -2.4671580747        0.6160479903
 C          7.0473786376       -1.4483089618        0.1300586174
 H          7.6276916589       -1.1044616709        0.9900354840
 H          7.7331905967       -1.9553410690       -0.5521552196
 C          6.4775637068       -0.2138142597       -0.5641758691
 H          7.3170772918        0.4255745541       -0.8502355441
 H          5.8666761685        0.3542286428        0.1403639511
 C          5.6561214437       -0.4914481069       -1.8216387050
 H          6.2434700216       -1.0908831801       -2.5198771153
 H          5.4494764267        0.4703266018       -2.2986425844
 C          4.3058294287       -1.1916762630       -1.5899395403
 H          3.6685703770       -0.9936845876       -2.4569903612
 H          4.4264194881       -2.2698929378       -1.5151988871
 H          5.5990403675       -3.0171305199       -0.2219907900
 H          6.5423838458       -3.1948699899        1.2406946118
 H          4.3263840028       -2.7127632353        1.9071575517
 H          5.3424858983       -1.3461914898        2.3210302417
 O          3.1844062809       -0.3931833505        1.9265986574
 C          2.1586667050        0.5145952274        1.7327521067
 O          1.6262843042        0.9230508017        2.7856169688
 O          2.1534929509        0.5432144820       -1.8794460259
 C          0.6980434689        1.8632623235        0.2251445412
 C         -0.4418938151        1.2126487933       -0.5212673854
 C         -1.0788058352        1.7926555049       -1.6097942617
 C         -2.1193161128        1.1356343056       -2.2452923014
 C         -2.5537472273       -0.1006163389       -1.8056937819
 C         -1.9366268510       -0.6800127520       -0.7034269728
 C         -0.8959708335       -0.0206244127       -0.0686840342
 H         -0.4145156669       -0.4753386958        0.7888992639
 N         -2.3842770016       -1.9257566373       -0.2325521571
 S         -4.0351862741       -2.1682271377       -0.1076009147
 O         -4.1962565158       -3.1368536610        0.9543780278
 O         -4.5676088873       -2.5511895891       -1.3916186071
 C         -4.7106525140       -0.5885481264        0.3753966781
 C         -4.2504068980       -0.0112772976        1.5423984413
 C         -4.7430655189        1.2281846339        1.9165046183
 C         -5.6840653822        1.8656266689        1.1221175992
 C         -6.1407376853        1.2701616732       -0.0431694259
 C         -5.6490616319        0.0317482468       -0.4238859658
 H         -5.9725170927       -0.4654933192       -1.3237704763
 H         -6.8738461098        1.7672407705       -0.6575886459
 H         -6.0625712682        2.8320481151        1.4153180712
 H         -4.3873798904        1.6919989782        2.8226545038
 H         -3.5205720447       -0.5321233284        2.1418638605
 H         -1.9009165660       -2.2522509911        0.5907654728
 H         -3.3505733584       -0.6317142639       -2.3006207001
 H         -2.5968117109        1.5923392108       -3.0984825661
 H         -0.7545008184        2.7550525098       -1.9690838071
 H          0.3381001000        2.1187631419        1.2326973820
 C          1.2226065349        3.1196782895       -0.4372763084
 C          0.5629647340        4.4398562235       -0.1786095610
 C          1.9100197069        4.1473792999        0.4089160429
 H          2.7733276893        4.6547192994        0.0051108288
 H          1.9768776812        3.9521605254        1.4697002255
 H          0.5027884120        5.1537241473       -0.9861049801
 H         -0.2866669890        4.4523835772        0.4870021801
 H          1.6293996521        2.9316247434       -1.4239617417
