  62
        -98.94517977
 C         -1.8354517731       -1.2522822059       -0.2521015691
 C         -2.8898501491       -0.5495506932        0.3703362107
 C         -3.1976187045        0.7848924305       -0.1709497322
 C         -2.4754288240        1.2520048960       -1.2046277855
 C         -2.5642221699        2.6102243667       -1.8432385160
 C         -1.5498542325        3.5680636191       -1.1934052151
 C         -2.0775990123        4.3260587371        0.0229559004
 H         -1.2372419441        4.8815107186        0.4460905100
 H         -2.8293195466        5.0516215405       -0.2969696677
 C         -2.6755176012        3.4398319197        1.1185002522
 H         -2.0370965463        2.5639609775        1.2553067129
 H         -2.6532700333        4.0012347367        2.0551244921
 C         -4.1221970729        3.0118691888        0.8284380906
 H         -4.7428349758        3.2300683653        1.7001549517
 H         -4.5129529255        3.6178922295        0.0109130650
 C         -4.3202571562        1.5229207745        0.5064369659
 H         -4.4908745979        0.9709177059        1.4362832371
 H         -5.2273259687        1.4074175718       -0.0967133854
 H         -0.6740433868        2.9843340596       -0.8956759788
 H         -1.2245780057        4.2986206253       -1.9373401895
 H         -2.2989908909        2.4802536861       -2.8945248662
 H         -3.5746253565        3.0039783701       -1.7811984277
 O         -1.4849377774        0.5304554452       -1.7936871646
 C         -1.1145542477       -0.7102381250       -1.3146173983
 O         -0.1531584550       -1.2304912577       -1.9150102440
 O         -3.5373289911       -1.0118243190        1.3511616371
 C         -1.3937411537       -2.5914960471        0.3096546248
 C          0.0626339290       -2.5109214341        0.6984082100
 C          0.9819304683       -3.5243275590        0.4581359220
 C          2.3138957988       -3.3597150654        0.7994358424
 C          2.7621912683       -2.1769889595        1.3587941814
 C          1.8468124523       -1.1631480646        1.6152461525
 C          0.5079121047       -1.3507230852        1.3191929483
 H         -0.1890286071       -0.5530745727        1.5313287673
 N          2.2422605543        0.0828263212        2.1491985257
 S          2.0629382948        1.4034760545        1.1270909381
 O          2.5661264347        2.5337372477        1.8787088671
 O          0.7012441325        1.4950626781        0.6722858030
 C          3.1755168824        1.0534848995       -0.2225833666
 C          4.4467106536        1.5948808505       -0.1806390620
 C          5.3488561887        1.2714614301       -1.1804647815
 C          4.9693586187        0.4054622972       -2.1954097849
 C          3.6920732913       -0.1322389482       -2.2197551240
 C          2.7807112102        0.1902464720       -1.2248074613
 H          1.7798060397       -0.2141125958       -1.2325603485
 H          3.3882157866       -0.8054818397       -3.0052673474
 H          5.6712679149        0.1490285470       -2.9732495972
 H          6.3416153079        1.6915973630       -1.1642494607
 H          4.6935500894        2.2651273958        0.6270583223
 H          3.1829359658        0.0847312393        2.5208351301
 H          3.8067738875       -2.0352520448        1.5922119392
 H          3.0166257828       -4.1551389098        0.6039420323
 H          0.6570884315       -4.4408270805       -0.0068240560
 H         -1.9931357615       -2.7438200790        1.2198560431
 C         -1.6937759609       -3.7094356368       -0.6671228124
 C         -2.0132513737       -5.0867765838       -0.1692987301
 C         -3.0946894439       -4.2330958432       -0.7579358599
 H         -3.4870874751       -4.4902864930       -1.7302758560
 H         -3.8274127470       -3.7997899686       -0.0927916038
 H         -1.6660411833       -5.9349749228       -0.7398085089
 H         -2.0193549431       -5.2438974858        0.8987061999
 H         -1.1345845338       -3.6126586412       -1.5910629256
