  62
        -98.93415661
 C          2.4054036969       -0.9750876288       -0.0896224751
 C          3.6510594477       -0.9347560931       -0.7649993476
 C          4.7107202464       -0.1084841036       -0.1613040677
 C          4.4404454507        0.5729489826        0.9650682947
 C          5.3508765316        1.5064702037        1.7140238424
 C          5.1376972592        2.9593603585        1.2564108345
 C          5.9725905652        3.3837549477        0.0488084580
 H          7.0190062213        3.4709519331        0.3487688810
 H          5.6328039263        4.3788467109       -0.2473589255
 C          5.8878674549        2.4541850764       -1.1646065223
 H          6.1965068568        3.0224712769       -2.0442061411
 H          4.8514519765        2.1509021882       -1.3238620487
 C          6.7823336311        1.2120866735       -1.0370363563
 H          7.4680654035        1.3506331494       -0.2013750438
 H          7.4008835068        1.1181867675       -1.9320864187
 C          6.0344697670       -0.1193450386       -0.8761634477
 H          6.6930006157       -0.8403414937       -0.3797743616
 H          5.8108694215       -0.5323762947       -1.8649436525
 H          5.3802795621        3.6266060668        2.0859636744
 H          4.0752515287        3.0875858202        1.0338102135
 H          5.0746613254        1.4301508803        2.7678046012
 H          6.3884341906        1.2062472487        1.6014859317
 O          3.2205621564        0.5343655742        1.5651797304
 C          2.1734369704       -0.2267228300        1.0654711382
 O          1.1299853331       -0.1421492675        1.7378710580
 H         -0.9652912113       -1.9795904418        0.8281396195
 C         -1.0419338221       -1.2434402487        0.0428307520
 C          0.0282642981       -1.0390208822       -0.8132560185
 C         -0.0864954877       -0.0646238388       -1.8004011866
 C         -1.2410347982        0.6849063692       -1.9232902470
 C         -2.3039651788        0.4833697641       -1.0603892564
 C         -2.1982434342       -0.4825172454       -0.0693360002
 N         -3.2650286683       -0.6741659866        0.8246418761
 S         -4.8032527243       -0.9011775658        0.2010266182
 O         -5.5269470335       -1.6239681023        1.2244236464
 O         -4.7584299579       -1.5159972277       -1.1060776525
 C         -5.4679168599        0.7458463079        0.0763800428
 C         -5.9908147017        1.1879252495       -1.1229612024
 C         -6.5161556838        2.4688492010       -1.1936009740
 C         -6.5101621510        3.2799552242       -0.0692571105
 C         -5.9826306014        2.8202088436        1.1283674865
 C         -5.4569427827        1.5404779248        1.2059407887
 H         -5.0392586143        1.1460211747        2.1172959470
 H         -5.9786350664        3.4542863190        2.0003518734
 H         -6.9184873511        4.2766462050       -0.1263414457
 H         -6.9261892694        2.8284283103       -2.1236758200
 H         -5.9681937532        0.5241015395       -1.9724776799
 H         -3.0650150482       -1.3326652120        1.5630139138
 H         -3.2057623366        1.0676653077       -1.1458142732
 H         -1.3146318329        1.4358739411       -2.6952460877
 H          0.7464105773        0.0998974174       -2.4704509360
 C          1.3085084925       -1.8264731176       -0.7047400060
 H          1.6666592375       -2.0309787610       -1.7271210503
 C          1.1168069443       -3.1819624295       -0.0401881746
 C          2.2930593416       -3.9457750050        0.4880304333
 C          1.2676205537       -3.4010192019        1.4343086950
 H          0.5967422202       -4.0976427818        1.9166706046
 H          1.5285388387       -2.5530876617        2.0478122846
 H          3.2579746463       -3.4617371671        0.4475264261
 H          2.3311616322       -5.0122503515        0.3250259943
 H          0.3479788688       -3.7653024795       -0.5393290353
 O          3.8689504561       -1.5614599011       -1.8367910808
