  62
        -98.94123169
 C          1.7802413794        0.0218650202        0.4122794099
 C          2.9334293992        0.3577066194        1.1704233605
 C          4.1926919294       -0.2776316199        0.7626049099
 C          4.1803954096       -1.1698854687       -0.2436826213
 C          5.3948499198       -1.8544113879       -0.7988918719
 C          6.0016620898       -1.0525089863       -1.9589413609
 C          6.2027152796        0.4305307533       -1.6467269090
 H          6.6639988997        0.8877735844       -2.5247833083
 H          5.2264172796        0.9026721930       -1.5150081185
 C          7.0701915794        0.7075067819       -0.4108162785
 H          7.7830771394        1.4983239922       -0.6536733674
 H          7.6480360595       -0.1819540484       -0.1570497695
 C          6.2905668692        1.1731571602        0.8204123620
 H          5.6405482491        2.0084885005        0.5476630829
 H          7.0082929591        1.5450987894        1.5563725725
 C          5.4373609592        0.1033503593        1.5135432305
 H          6.0483349993       -0.7780093109        1.7190169995
 H          5.0972409590        0.5158003780        2.4679802010
 H          6.9592521299       -1.5031257259       -2.2261979213
 H          5.3359480800       -1.1337279953       -2.8214979011
 H          6.1298091797       -1.9793622088       -0.0059927220
 H          5.0979581299       -2.8387113774       -1.1650485032
 O          3.0493122497       -1.5165079080       -0.9051069019
 C          1.8235673996       -0.9274077685       -0.6106850613
 O          0.8924192398       -1.3409190077       -1.3253545019
 O          2.9088983990        1.1549757982        2.1451096615
 C          0.4781444693        0.6966396996        0.8088181005
 C         -0.6192554407       -0.3179166308        0.9904530591
 C         -0.7210903507       -1.0234035323        2.1851055482
 C         -1.7276962407       -1.9524899726        2.3779050169
 C         -2.6510790705       -2.2033395515        1.3775406065
 C         -2.5439986204       -1.5182074600        0.1765476473
 C         -1.5453812305       -0.5733808596       -0.0088792113
 H         -1.4710890704       -0.0524644084       -0.9508888007
 N         -3.5037296902       -1.7561701688       -0.8400469131
 S         -4.9613522404       -0.9793576593       -0.5610068423
 O         -5.5675562305       -1.5483568109        0.6151405369
 O         -5.7177014702       -1.0795592479       -1.7885561426
 C         -4.5013669706        0.7168639803       -0.2529902601
 C         -4.3860000205        1.5807409917       -1.3237024191
 C         -3.9286620307        2.8692424815       -1.0994111074
 C         -3.5829852010        3.2644631599        0.1840194432
 C         -3.7018618810        2.3838116386        1.2485635120
 C         -4.1628504208        1.0953791088        1.0308007104
 H         -4.2679804509        0.3812136978        1.8311505595
 H         -3.4280455312        2.6926425574        2.2447215325
 H         -3.2174617411        4.2648926397        0.3561384845
 H         -3.8363244007        3.5577000425       -1.9242099365
 H         -4.6654419704        1.2327375629       -2.3054662695
 H         -3.1623652301       -1.5037884376       -1.7575104927
 H         -3.4540388804       -2.9099740117        1.5110795255
 H         -1.7954232507       -2.4854814838        3.3142048863
 H          0.0015286491       -0.8340355832        2.9668259286
 H          0.6967868791        1.1402292984        1.7933299111
 C          0.0523587993        1.8433155207       -0.0976663181
 C          1.0683001992        2.7974989615       -0.6475276568
 C          0.3298601295        1.8760662125       -1.5693596780
 H         -0.4241033505        2.2979852433       -2.2180486576
 H          0.8629159996        1.0457294031       -2.0055137490
 H          0.8316985691        3.8502230615       -0.6693306955
 H          2.1077575592        2.5864943413       -0.4419744869
 H         -0.8927495108        2.2718893702        0.2224854123
