  62
        -98.93752327
 C         -1.6450792505       -1.2012690103       -0.5279714802
 C         -1.8079020909       -0.0224398103        0.2343932197
 C         -3.1864570011        0.3142187995        0.6481115794
 C         -4.1891446408       -0.5143293107        0.3017637492
 C         -5.6613594909       -0.3685883110        0.5836961889
 C         -6.3397374709        0.6739131388       -0.3189850912
 C         -5.5648431212        1.9780025890       -0.4865752511
 H         -4.5782555510        1.7571792591       -0.8974811209
 H         -6.0952164711        2.5862136888       -1.2241003713
 C         -5.4123064316        2.8113631990        0.7836337189
 H         -4.9329094717        3.7512258991        0.4985496889
 H         -6.4032139917        3.0507163389        1.1759611387
 C         -4.5845600317        2.1782070992        1.9044990691
 H         -4.3504046020        2.9698955993        2.6221912991
 H         -5.1610341116        1.4332117192        2.4463648490
 C         -3.2512382915        1.5880096795        1.4560827094
 H         -2.6352994316        1.4013747897        2.3439105595
 H         -2.7015128915        2.3398521896        0.8788165494
 H         -6.4660521707        0.2313657487       -1.3101313512
 H         -7.3316348811        0.8852315486        0.0842449086
 H         -5.8195831012       -0.1339860310        1.6321491089
 H         -6.1146868307       -1.3432648911        0.3895008289
 O         -3.9788953305       -1.6490910607       -0.4273623907
 C         -2.7213688503       -2.0228019505       -0.8567079904
 O         -2.6886351100       -3.0898187605       -1.5043298303
 O         -0.8516807811        0.7281939799        0.5590570199
 C         -0.2606509004       -1.6181359100       -0.9907064999
 C          0.6344370094       -1.8031688998        0.2102483503
 C          0.2067269594       -2.6271095498        1.2486572502
 C          0.9841517092       -2.7980021696        2.3772236504
 C          2.1988396190       -2.1456714194        2.4998143106
 C          2.6367905891       -1.3242434193        1.4677254307
 C          1.8615699993       -1.1722114295        0.3252897705
 H          2.2263100493       -0.5524478795       -0.4743681695
 N          3.8327059289       -0.6155818091        1.5882419209
 S          4.6291022690        0.1048957910        0.3224251810
 O          4.8019272294       -0.8026529790       -0.7882923889
 O          5.8507341088        0.6044117613        0.9169013312
 C          3.5961764489        1.4719673308       -0.1633566293
 C          2.9401886085        2.2043528507        0.8048964406
 C          2.1397071184        3.2646834105        0.4126644604
 C          2.0133626586        3.5767318504       -0.9317935197
 C          2.6854352489        2.8368198405       -1.8921798595
 C          3.4856711491        1.7740713307       -1.5061432493
 H          4.0159716293        1.1626986508       -2.2194587892
 H          2.5839593391        3.0799731005       -2.9380473595
 H          1.3830390785        4.3983965403       -1.2337913298
 H          1.6087748681        3.8374255504        1.1556510002
 H          3.0488474084        1.9322432808        1.8415238806
 H          4.4005289988       -0.7976697990        2.3997125110
 H          2.7993989989       -2.2667423792        3.3882058507
 H          0.6403111592       -3.4406373697        3.1739354603
 H         -0.7485235805       -3.1270829800        1.1585277600
 H         -0.3836187001       -2.5943714201       -1.4822028699
 C          0.2745671997       -0.6240286299       -2.0000399198
 C          1.2853423699       -1.0546414398       -3.0183659896
 C         -0.1230641700       -0.7610852801       -3.4376620999
 H         -0.3159862701        0.1353237099       -4.0073087800
 H         -0.7641052298       -1.5908144302       -3.6987174900
 H          2.0626092799       -0.3605063896       -3.2997296695
 H          1.6080620501       -2.0847714297       -2.9988605995
 H          0.3518860694        0.3793190401       -1.5960027899
