  62
        -98.94443212
 C          1.9550782655        1.0900962608       -0.2027688930
 C          2.4375556328       -0.0789196719       -0.8384867269
 C          3.8933723824       -0.2797232811       -0.7838689262
 C          4.6652610802        0.6405209583       -0.1774243701
 C          6.1528197069        0.5356835025       -0.0083593461
 C          6.5147234648       -0.1490331932        1.3171044106
 C          5.7578399276       -1.4538221093        1.5653824805
 H          6.1153297678       -1.8616474660        2.5133694377
 H          4.6954452681       -1.2324926997        1.6906584544
 C          5.9268173855       -2.5061215800        0.4606446127
 H          6.1100630472       -3.4765962310        0.9266375843
 H          6.8007972206       -2.2686827653       -0.1470078816
 C          4.7080353569       -2.6727695893       -0.4491031483
 H          3.8115503071       -2.8174310914        0.1594754729
 H          4.8488346356       -3.5795096797       -1.0435897270
 C          4.4432434753       -1.5213108459       -1.4273727662
 H          5.3532079818       -1.2968129638       -1.9876961515
 H          3.6776951620       -1.8555305840       -2.1339751682
 H          7.5889060673       -0.3425793696        1.3232729489
 H          6.2885067990        0.5388582802        2.1350232324
 H          6.5693370678       -0.0232493325       -0.8440153621
 H          6.5711581020        1.5436015588       -0.0125038523
 O          4.1657378629        1.7627292452        0.4007485079
 C          2.8028446132        2.0091618720        0.4153342109
 O          2.4747444125        3.0602221867        1.0019820124
 O          1.6957152613       -0.9129889934       -1.4203108584
 C          0.4655182202        1.3869721335       -0.1917781470
 C         -0.2819523136        0.2294825327        0.4235793953
 C          0.1111251237       -0.2217001165        1.6819269826
 C         -0.5224913752       -1.2931619974        2.2789240373
 C         -1.5719713037       -1.9309565780        1.6399236799
 C         -1.9776401968       -1.4853520595        0.3885201282
 C         -1.3385345001       -0.4055404469       -0.2085242197
 H         -1.6641342222       -0.0953505110       -1.1865583623
 N         -3.0269640522       -2.1280593096       -0.2876328969
 S         -4.2185354534       -1.2433101133       -1.0549112957
 O         -5.2823010130       -2.1954431804       -1.2856115080
 O         -3.6885818904       -0.5843186361       -2.2202568917
 C         -4.7296645217       -0.0455677500        0.1631493070
 C         -4.2145280039        1.2339272082        0.1257076798
 C         -4.5707344759        2.1272923690        1.1239545985
 C         -5.4294562423        1.7279222792        2.1361594691
 C         -5.9427107919        0.4396664936        2.1566180744
 C         -5.5873489350       -0.4589068087        1.1642814446
 H         -5.9726326662       -1.4653483217        1.1373389975
 H         -6.6146393156        0.1341329710        2.9424272879
 H         -5.7020321672        2.4263680413        2.9115841626
 H         -4.1746003554        3.1302439399        1.1080688092
 H         -3.5537429264        1.5092509702       -0.6795111891
 H         -3.4273914351       -2.9082932009        0.2123430630
 H         -2.0629509960       -2.7749692226        2.1000866997
 H         -0.1994906796       -1.6359760548        3.2504427180
 H          0.9333346596        0.2759300698        2.1788319837
 H          0.3369840065        2.2645338555        0.4585880135
 C         -0.0021909151        1.7445011348       -1.5866984702
 C         -1.1494533270        2.6885586396       -1.7782140236
 C          0.2458908786        3.1286127116       -2.1032514625
 H          0.5239143480        3.2498595223       -3.1394555208
 H          0.7311647854        3.8262475517       -1.4359435041
 H         -1.8369770221        2.5063803083       -2.5912970720
 H         -1.6068556798        3.1013752609       -0.8914589876
 H          0.1094908993        0.9267339765       -2.2899406589
