  62
        -98.93367953
 C         -1.2189642836       -1.8970151119        0.4197015891
 C         -1.7997320764       -1.3696758823       -0.7588547656
 C         -2.9133822834       -0.4216660547       -0.5663372384
 C         -3.2900721906       -0.0855694769        0.6796939387
 C         -4.3495778743        0.9191696629        1.0341651442
 C         -3.8198476927        2.3543356060        0.8388202073
 C         -4.5317186647        3.1429962447       -0.2595500970
 H         -3.9520771282        4.0514314935       -0.4374700428
 H         -5.5176302533        3.4457737347        0.0991262989
 C         -4.7205531550        2.4036743931       -1.5877413720
 H         -4.9735641822        3.1551875787       -2.3385726296
 H         -5.5792005514        1.7341400165       -1.5170960546
 C         -3.5116894174        1.5993650804       -2.0842145772
 H         -2.5864482492        1.9986578367       -1.6669343575
 H         -3.4460412581        1.7210061757       -3.1676377540
 C         -3.5930219405        0.0858570512       -1.8087268497
 H         -3.1026304968       -0.4432513339       -2.6315885883
 H         -4.6416545737       -0.2249019985       -1.8002499586
 H         -2.7539033797        2.3039617638        0.6083478770
 H         -3.9140813457        2.9086355984        1.7737004590
 H         -5.2311805399        0.7519417323        0.4188801367
 H         -4.6171975393        0.7518633700        2.0777218770
 O         -2.6839172417       -0.5846423476        1.7881181435
 C         -1.6541723014       -1.5055619890        1.6896491786
 O         -1.2145702842       -1.8981313556        2.7864780455
 H          0.6830232188       -1.1456804095       -1.4722470086
 C          1.4447484291       -1.2645469338       -0.7156950996
 C          1.2366479533       -2.1673880979        0.3183070846
 C          2.2264248006       -2.3129692586        1.2819778763
 C          3.3931350450       -1.5696605615        1.2115075441
 C          3.5878908597       -0.6564155619        0.1907333873
 C          2.6011309885       -0.5040991265       -0.7749257948
 N          2.7544204219        0.4775114245       -1.7765066818
 S          2.9867996112        2.0299285285       -1.1829224796
 O          2.3413007159        2.9154960084       -2.1263400146
 O          4.3968759135        2.2520456132       -0.9812598876
 C          2.1531919208        2.0593952449        0.3978650668
 C          0.8079187036        1.7486123798        0.4476809661
 C          0.1763154609        1.7093223622        1.6796026448
 C          0.8914862649        1.9869156260        2.8342619875
 C          2.2376803785        2.3081301908        2.7667265914
 C          2.8778404880        2.3388937174        1.5382235244
 H          3.9263821107        2.5682513284        1.4401209220
 H          2.7904131156        2.5241825114        3.6666269002
 H          0.3910427515        1.9436211886        3.7886085915
 H         -0.8674426342        1.4440176867        1.7418291240
 H          0.2704450947        1.5347149696       -0.4638079149
 H          1.9969114059        0.4712297326       -2.4458490983
 H          4.4769061191       -0.0490521316        0.1324599183
 H          4.1531691172       -1.6927200566        1.9674684711
 H          2.0678856895       -2.9977302823        2.1018312433
 C         -0.0752271626       -2.9024737490        0.4114055235
 H         -0.1150385701       -3.3894037797        1.3977099581
 C         -0.2447550090       -3.9892296958       -0.6419476031
 C          0.6911004578       -4.1840223254       -1.7939571368
 C          0.6955146688       -5.1581956992       -0.6570486960
 H          0.2926151001       -6.1469682867       -0.8154711427
 H          1.5343951580       -5.1258502392        0.0219653518
 H          1.5322842856       -3.5162315291       -1.8942978387
 H          0.2633946513       -4.4863183472       -2.7379196516
 H         -1.2898570441       -4.2070866162       -0.8358075152
 O         -1.4250881965       -1.6589703893       -1.9259652494
