  62
        -98.93994866
 C         -2.4964179304       -1.2717327697       -0.1467593608
 C         -2.2591339905       -0.0493569896       -0.8208907906
 C         -3.4329900206        0.8176170704       -1.0050006704
 C         -4.6327308405        0.4114372903       -0.5514312703
 C         -5.8918471105        1.2260033003       -0.6078431200
 C         -6.0620138604        2.0678594501        0.6648921701
 C         -4.8135211804        2.8591028601        1.0555940501
 H         -5.0603996203        3.4352594599        1.9499169702
 H         -4.0190285303        2.1618061700        1.3320631299
 C         -4.2951340805        3.8067546202       -0.0350839298
 H         -5.0778246106        3.9861944503       -0.7729701497
 H         -4.0526938205        4.7683993002        0.4219138303
 C         -3.0309922006        3.3226677804       -0.7480895200
 H         -2.6329562307        4.1523983904       -1.3386457400
 H         -2.2694420405        3.0545393503       -0.0105768402
 C         -3.2162773407        2.1330218305       -1.6984755402
 H         -4.0298582507        2.3414749806       -2.3963517801
 H         -2.2906143607        2.0203600606       -2.2711689403
 H         -6.8972583404        2.7542632401        0.5153483003
 H         -6.3143903103        1.3987680400        1.4906046900
 H         -5.8614046706        1.8721251004       -1.4828010399
 H         -6.7392055805        0.5445919103       -0.6983157800
 O         -4.8247810004       -0.7807356198        0.0687272296
 C         -3.7648518504       -1.6407939898        0.3023660193
 O         -4.0747619403       -2.6855224599        0.9097251792
 O         -1.1289887306        0.3065959505       -1.2481492007
 C         -1.3463822204       -2.2222054597        0.1425842390
 C         -0.3592446503       -1.5205013598        1.0439788290
 C         -0.7891458402       -1.1308725200        2.3109629691
 C          0.0570951899       -0.4541493901        3.1664812991
 C          1.3463184199       -0.1422315101        2.7706764090
 C          1.7876152497       -0.5311237799        1.5119796789
 C          0.9393593597       -1.2279600398        0.6605128189
 H          1.3012342196       -1.5082616296       -0.3135001212
 N          3.1102398297       -0.2577949498        1.1102601688
 S          3.3920807995        0.3724755804       -0.4339313711
 O          2.6833823895        1.6219722505       -0.6005120309
 O          3.1554800994       -0.6519502794       -1.4172273913
 C          5.1445711195        0.6858202805       -0.3090512113
 C          5.5889179895        1.9618336704       -0.0192670711
 C          6.9511562295        2.1869827304        0.1026216487
 C          7.8413920395        1.1369924205       -0.0639341415
 C          7.3807419595       -0.1383429295       -0.3559028416
 C          6.0200431995       -0.3695230295       -0.4798242315
 H          5.6160242095       -1.3405400095       -0.7136910916
 H          8.0761258495       -0.9515489895       -0.4877317118
 H          8.9009920595        1.3143950605        0.0312317684
 H          7.3119121495        3.1781771404        0.3256826888
 H          4.8604003395        2.7490648804        0.0914867990
 H          3.5902316098        0.3204776201        1.7889183288
 H          2.0058858299        0.3978734099        3.4335314390
 H         -0.2901824300       -0.1576137903        4.1449506292
 H         -1.8032575201       -1.3629380601        2.6089441292
 H         -1.7824000903       -3.0621977198        0.7023690389
 C         -0.7422257905       -2.7543971295       -1.1383622912
 C          0.0194353695       -4.0443877895       -1.1194069714
 C         -1.3307474005       -3.9803446095       -1.7664204313
 H         -1.3914806007       -4.0284108293       -2.8433291913
 H         -2.1642042305       -4.4456596096       -1.2602015612
 H          0.8903283995       -4.1346660394       -1.7508187015
 H          0.1041027396       -4.5587992397       -0.1740309715
 H         -0.3980726706       -1.9700176194       -1.8029860911
