  62
        -98.93818728
 C         -2.1547058182       -1.2309541961       -0.1203339607
 C         -2.5993199394       -0.1086015907       -0.8554655300
 C         -3.9875573023        0.3256366959       -0.6124673271
 C         -4.7498588097       -0.3498189003        0.2677997741
 C         -6.1961043080       -0.1661323706        0.6781981855
 C         -6.9382286534        1.1312228709        0.3673770395
 C         -6.4141293808        2.3623907000        1.1054782370
 H         -6.6398909196        2.2530314788        2.1692466792
 H         -6.9572932267        3.2361977201        0.7388308861
 C         -4.9147589005        2.6205042160        0.9770943004
 H         -4.3597246056        1.8038809610        1.4434366992
 H         -4.6823217223        3.5283076100        1.5405564152
 C         -4.4029614795        2.8164470338       -0.4489080262
 H         -3.3638066361        3.1504165576       -0.3813701977
 H         -4.9761452096        3.6051723645       -0.9402056471
 C         -4.4266564098        1.5625551454       -1.3410220146
 H         -3.7072243266        1.7127035661       -2.1513625132
 H         -5.4040708869        1.4165394126       -1.7947737474
 H         -7.9752134797        0.9774450499        0.6783385144
 H         -6.9547073357        1.3095868947       -0.7037405085
 H         -6.2219426539       -0.3423679827        1.7581840996
 H         -6.7441089382       -0.9957798004        0.2178166959
 O         -4.2774950066       -1.4394008198        0.9422411629
 C         -2.9817249267       -1.8954259190        0.7828275922
 O         -2.6902572943       -2.8804447641        1.4906770671
 O         -1.8781184885        0.5038190152       -1.6858526380
 C         -0.7340660694       -1.7398584748       -0.2885084327
 C          0.2386092105       -0.6349511520        0.0440595887
 C          0.1517053526       -0.0269015862        1.2941027055
 C          1.0085071867        0.9981674784        1.6448183159
 C          1.9752684743        1.4393091154        0.7577884856
 C          2.0779508664        0.8326082112       -0.4860583733
 C          1.2212000071       -0.2056062284       -0.8329047738
 H          1.3133957799       -0.6610045807       -1.8061932037
 N          3.0631491746        1.2674218354       -1.3864518345
 S          4.6048204599        1.5470432703       -0.8050230851
 O          4.6637030093        2.8391514045       -0.1684057958
 O          5.4766528692        1.3648778287       -1.9441318525
 C          4.8799917739        0.2641697859        0.4048472566
 C          4.8286000946       -1.0498721673       -0.0169827953
 C          5.0076245891       -2.0600411301        0.9135906082
 C          5.2330947728       -1.7411014783        2.2441436471
 C          5.2861530852       -0.4172976115        2.6510689000
 C          5.1062246429        0.5973987300        1.7244401769
 H          5.1379954155        1.6393072951        1.9986201171
 H          5.4635067039       -0.1722836337        3.6858907307
 H          5.3686701482       -2.5300233587        2.9670672561
 H          4.9682166927       -3.0907980275        0.5997354162
 H          4.6587922827       -1.2651029332       -1.0595683691
 H          3.0754913973        0.7687940502       -2.2634358936
 H          2.6392900986        2.2512382953        1.0059942739
 H          0.9216804140        1.4634910105        2.6150127713
 H         -0.6079487384       -0.3672919566        1.9850612667
 H         -0.6097992672       -2.5383589179        0.4568588375
 C         -0.5483538542       -2.3312752030       -1.6698985698
 C          0.5013847344       -3.3749487958       -1.9040773109
 C         -0.9481441981       -3.7555363191       -1.9052541425
 H         -1.4154268814       -4.0113429055       -2.8444564817
 H         -1.3364530361       -4.3070955023       -1.0613835430
 H          1.0293891550       -3.3761519433       -2.8459226866
 H          1.1016997659       -3.6762418849       -1.0591827108
 H         -0.7532974335       -1.6194945255       -2.4614942144
