  62
        -98.94478074
 C         -2.1872085286       -1.3927620340        0.1771853416
 C         -2.0347347848       -0.4763148958       -0.8915003599
 C         -3.0291630407        0.6042457220       -0.9503184443
 C         -3.9855344431        0.6914974103       -0.0084390037
 C         -5.0870157550        1.7151326366        0.0474519264
 C         -4.6727432302        3.0520093863        0.6772184852
 C         -3.7664722379        3.9271099607       -0.1893774087
 H         -4.2119150051        4.0424017095       -1.1780227458
 H         -3.7404165095        4.9159833531        0.2725926046
 C         -2.3277599532        3.4096048886       -0.3267485985
 H         -2.1285339843        2.6781630870        0.4602262201
 H         -1.6331497117        4.2406197300       -0.1827393074
 C         -2.0083360130        2.7796438773       -1.6827299707
 H         -0.9791963175        2.4119877625       -1.6633610844
 H         -2.0777752310        3.5389018128       -2.4650404988
 C         -2.9171929245        1.6042262262       -2.0623380519
 H         -3.9052115483        1.9685901606       -2.3434341909
 H         -2.4757079172        1.0951239766       -2.9228474770
 H         -4.1822525802        2.8515964257        1.6324399254
 H         -5.5885198363        3.6101326766        0.8851142565
 H         -5.8825746561        1.2798872150        0.6560831136
 H         -5.4755639034        1.8899248801       -0.9564669902
 O         -4.0745843085       -0.1878284259        1.0242189361
 C         -3.1867619540       -1.2423379956        1.1428112567
 O         -3.3888585130       -1.9716566285        2.1339660462
 O         -1.1337909033       -0.5507563736       -1.7680500820
 C         -1.2719020532       -2.5975843966        0.3333779822
 C          0.1198946636       -2.1372107481        0.6911908176
 C          0.4362185482       -1.8821510746        2.0228064211
 C          1.6980084658       -1.4415687992        2.3767984209
 C          2.6661267383       -1.2275314909        1.4103204775
 C          2.3490061169       -1.4503373576        0.0769843671
 C          1.0883370748       -1.9165415214       -0.2746133250
 H          0.8552424918       -2.0773245228       -1.3147095063
 N          3.3022008180       -1.2043643766       -0.9217589012
 S          4.3773529645        0.0575158453       -0.7475714169
 O          4.7247145167        0.4468426129       -2.0967309098
 O          5.4815686072       -0.3615684497        0.0815020985
 C          3.5072934807        1.3862550469        0.0713326573
 C          2.2203165618        1.7064427599       -0.3130867177
 C          1.5753663465        2.7535949082        0.3258058667
 C          2.2226360003        3.4648383990        1.3241067311
 C          3.5167398107        3.1347797641        1.6943130115
 C          4.1649804979        2.0847531307        1.0646066806
 H          5.1666020978        1.7854892520        1.3281546722
 H          4.0197662335        3.6877972873        2.4710960827
 H          1.7124030174        4.2780914714        1.8155907496
 H          0.5654951806        3.0047391431        0.0436290605
 H          1.7243384727        1.1401602716       -1.0863179587
 H          2.9409070219       -1.2656333972       -1.8620058352
 H          3.6584736495       -0.8970345437        1.6720481585
 H          1.9330203715       -1.2618331651        3.4147523135
 H         -0.3237891390       -2.0330964713        2.7768122045
 H         -1.6681015645       -3.1617700051        1.1879170866
 C         -1.3150929961       -3.4862399621       -0.8936601084
 C         -0.7668817633       -4.8779265391       -0.8087841187
 C         -2.2457018930       -4.6595136227       -0.9149264742
 H         -2.7394662728       -4.9085895004       -1.8423987668
 H         -2.8531305076       -4.8322710716       -0.0384151818
 H         -0.2435652541       -5.2808961906       -1.6624527575
 H         -0.3683164349       -5.1980984686        0.1420733682
 H         -1.1854364736       -2.9470726767       -1.8236139351
