  62
        -98.93413014
 C         -2.3656750940       -0.9202974470        0.0743819052
 C         -3.6142606313       -0.8602503711        0.7409721407
 C         -4.6607278471       -0.0047972424        0.1485096575
 C         -4.3691903831        0.6902706591       -0.9662452602
 C         -5.2458751761        1.6508435041       -1.7250528026
 C         -5.3794679165        3.0117599441       -1.0234942341
 C         -5.6244384374        2.9373280566        0.4812022663
 H         -4.8051214912        2.3902294719        0.9510598392
 H         -5.5984401321        3.9578431949        0.8723211794
 C         -6.9553420913        2.3129938360        0.8938416392
 H         -7.0388354465        2.4158532483        1.9788126393
 H         -7.7725290904        2.8807431163        0.4433800789
 C         -7.1388723044        0.8345968827        0.5434937910
 H         -7.3888448777        0.7067652333       -0.5063734382
 H         -7.9987581477        0.4698513673        1.1129941952
 C         -5.9599597385       -0.0589883049        0.9157429349
 H         -6.2867844792       -1.1049710143        0.8671937471
 H         -5.6984440618        0.1101281716        1.9665769625
 H         -6.1895491633        3.5666296356       -1.4998133379
 H         -4.4511231081        3.5658359064       -1.1824532094
 H         -4.7717011524        1.8062545629       -2.6966927777
 H         -6.2218753293        1.2080056559       -1.9001947994
 O         -3.1422243641        0.6298871723       -1.5556001152
 C         -2.1137676343       -0.1605697064       -1.0686257173
 O         -1.0671971455       -0.0894445909       -1.7384015814
 O         -3.8537530131       -1.4958390577        1.8031809127
 C         -1.2898416922       -1.7999598311        0.6864207467
 C          0.0012457156       -1.0335803179        0.8149375839
 C          0.1177572162       -0.0661767280        1.8088327048
 C          1.2805845634        0.6671358789        1.9489051245
 C          2.3504659160        0.4560540540        1.0969145162
 C          2.2437681113       -0.5039180094        0.1002751265
 C          1.0784938542       -1.2485654671       -0.0295194079
 H          1.0009790603       -1.9793333054       -0.8197030929
 N          3.3171873959       -0.7055470833       -0.7821159701
 S          4.8572584112       -0.9055150894       -0.1563436927
 O          5.5832777471       -1.6501580627       -1.1623024581
 O          4.8194410138       -1.4854251397        1.1666049354
 C          5.5113948250        0.7487077988       -0.0780569385
 C          5.5006124418        1.5084763098       -1.2313098724
 C          6.0180135210        2.7932772924       -1.1908148298
 C          6.5369390154        3.2929252277       -0.0055027720
 C          6.5426653724        2.5166911018        1.1431799635
 C          6.0259056401        1.2307698292        1.1094504222
 H          6.0045317526        0.5929526047        1.9787835216
 H          6.9461495296        2.9071962316        2.0636014002
 H          6.9389657631        4.2934104794        0.0227200634
 H          6.0143538785        3.4001193140       -2.0820002334
 H          5.0901737525        1.0836826819       -2.1322772067
 H          3.1246876842       -1.3675791985       -1.5190303988
 H          3.2590244819        1.0275325774        1.1956234425
 H          1.3552630928        1.4131696516        2.7255477972
 H         -0.7208255331        0.1061684581        2.4697863913
 H         -1.6602577440       -2.0112580271        1.7031156132
 C         -1.1154029930       -3.1496244332        0.0058941688
 C         -2.2996966789       -3.8848357179       -0.5445027066
 C         -1.2547354285       -3.3464137050       -1.4728505448
 H         -0.5918063656       -4.0488641129       -1.9577580173
 H         -1.4936318943       -2.4856210008       -2.0772982207
 H         -2.3590246208       -4.9525091023       -0.3962033122
 H         -3.2558879814       -3.3835861200       -0.5075183469
 H         -0.3627150736       -3.7534588340        0.5052632514
