  62
        -98.94043410
 C          2.0452034593        0.4545688812        0.0997064416
 C          2.7079974841       -0.7257385559        0.5245779147
 C          4.0549583111       -0.9517554480       -0.0126565777
 C          4.5697907515       -0.0629075115       -0.8814384307
 C          5.9466434648       -0.1388842114       -1.4735075204
 C          6.9652049328        0.6201889759       -0.6117545294
 C          6.8989217888        0.2694618156        0.8746677413
 H          5.9420838409        0.6081324551        1.2785260254
 H          7.6810435156        0.8410161402        1.3790496435
 C          7.0774753141       -1.2237127345        1.1830642355
 H          7.7672894523       -1.3279394158        2.0232509034
 H          7.5305403014       -1.7272767907        0.3283245482
 C          5.7883282691       -1.9494602727        1.5728248808
 H          5.2820026567       -1.3956349178        2.3674830827
 H          6.0583436383       -2.9284315000        1.9778783273
 C          4.7855702088       -2.1858347639        0.4362562384
 H          4.0170174525       -2.8702244814        0.8075326322
 H          5.2905036882       -2.6628375114       -0.4064302666
 H          6.7795946068        1.6913279519       -0.7194634917
 H          7.9658217497        0.4088377071       -0.9932175865
 H          6.2390751567       -1.1831404799       -1.5656679883
 H          5.9185511278        0.3101851897       -2.4677697064
 O          3.8990871285        1.0424603344       -1.2868659171
 C          2.6243677920        1.3371262761       -0.8134082769
 O          2.1503415620        2.3865895407       -1.2827459769
 H         -1.3042618825       -1.0167550206        1.3918597826
 C         -1.3438338698       -0.7815749513        0.3368809298
 C         -0.3942164463        0.0697763091       -0.2083978498
 C         -0.4498958125        0.3471916538       -1.5706794640
 C         -1.4294949248       -0.2224603337       -2.3635922626
 C         -2.3746351203       -1.0726440799       -1.8160955900
 C         -2.3305324836       -1.3517498922       -0.4571380749
 N         -3.3156176394       -2.1883392903        0.1062519846
 S         -4.8981437009       -1.6552158066       -0.0687526032
 O         -5.6482960493       -2.3253326309        0.9685910179
 O         -5.3316320540       -1.8884046699       -1.4222489523
 C         -4.7916348234        0.0950274322        0.2548043689
 C         -4.6772339159        0.9789580623       -0.7991146417
 C         -4.4800827918        2.3232091463       -0.5261276098
 C         -4.4014538175        2.7581220330        0.7873944213
 C         -4.5290223565        1.8589583865        1.8352533467
 C         -4.7186597688        0.5127478476        1.5691060412
 H         -4.8227451986       -0.2173602457        2.3560028180
 H         -4.4718101612        2.2019597698        2.8558394328
 H         -4.2360077439        3.8028335841        0.9962374222
 H         -4.3815800238        3.0252348408       -1.3383576878
 H         -4.7477083704        0.6028382933       -1.8062534922
 H         -3.1354704730       -2.4231724116        1.0722178451
 H         -3.1488499533       -1.5201984030       -2.4182515910
 H         -1.4584107081       -0.0013675581       -3.4198380308
 H          0.2799433525        1.0183727371       -1.9975357499
 C          0.6592213356        0.6906180998        0.6724626740
 H          0.6569694475        0.1369682218        1.6248833136
 C          0.3692857946        2.1503814603        0.9954317269
 C         -0.6693639290        2.9658749451        0.2907758437
 C         -0.9047916015        2.5152718542        1.6988146859
 H         -0.8669721062        3.2445626891        2.4933240668
 H         -1.6283584297        1.7283479811        1.8518438330
 H         -1.2430312601        2.4987758977       -0.4939718910
 H         -0.4424133027        4.0042579142        0.1052814400
 H          1.2641870477        2.6806387579        1.3037621355
 O          2.1921223953       -1.5503264353        1.3273742435
