  62
        -98.94388768
 C          1.6666330637        1.4344327114        0.5526500581
 C          2.6440520084        1.0517933683       -0.3984690596
 C          3.4801845424       -0.1012924616       -0.0248242560
 C          3.2196515546       -0.7744805683        1.1096439926
 C          3.9545650790       -1.9984650653        1.5728316123
 C          3.3046721568       -3.2851560510        1.0448944610
 C          3.0171362063       -3.2618766854       -0.4560518860
 H          2.5904224853       -4.2321584318       -0.7193655180
 H          2.2601078101       -2.5022208505       -0.6632039323
 C          4.2468693332       -2.9960180176       -1.3349701573
 H          5.1588376991       -3.1785140068       -0.7652010144
 H          4.2408424109       -3.6999857899       -2.1697068140
 C          4.2976674698       -1.5909558499       -1.9366289885
 H          5.0758861002       -1.5770527603       -2.7043988139
 H          3.3482172775       -1.3670112590       -2.4289856577
 C          4.6089966116       -0.4576330664       -0.9514675583
 H          5.5077416567       -0.7030520628       -0.3815474972
 H          4.8102886811        0.4432267858       -1.5383652108
 H          2.3617906308       -3.4413267934        1.5740449947
 H          3.9643712926       -4.1229366041        1.2782355062
 H          4.9883948819       -1.9395740166        1.2373368572
 H          3.9388539486       -2.0152944655        2.6640950542
 O          2.2117646622       -0.4322782513        1.9533588775
 C          1.4290606012        0.6811772146        1.7063911440
 O          0.5595734823        0.8967222799        2.5752758692
 H         -1.6702820479        2.0770607460        1.3886899433
 C         -1.6409317459        1.8687908301        0.3277278318
 C         -0.4774328586        2.1276779040       -0.3817372931
 C         -0.4392527885        1.8207258775       -1.7377696017
 C         -1.5453332828        1.2708993906       -2.3608021294
 C         -2.7015474826        1.0024522458       -1.6475981619
 C         -2.7435174921        1.2988211950       -0.2920405946
 N         -3.8962002251        0.9856710243        0.4537283429
 S         -4.4654435287       -0.5810545108        0.2966339404
 O         -5.3169472442       -0.6655925744       -0.8639399198
 O         -5.0982894116       -0.8908356205        1.5596915097
 C         -3.0218680344       -1.6040602007        0.0486329205
 C         -2.9885126201       -2.4715610820       -1.0243465560
 C         -1.8697511425       -3.2670786825       -1.2110547233
 C         -0.8027590286       -3.1750404626       -0.3310853654
 C         -0.8478956141       -2.2934508821        0.7376811806
 C         -1.9684774772       -1.5036385757        0.9361145893
 H         -2.0134743498       -0.8157610366        1.7657904948
 H         -0.0146038702       -2.2030381678        1.4176356123
 H          0.0699322186       -3.7914931782       -0.4771692405
 H         -1.8301132573       -3.9523986814       -2.0422699063
 H         -3.8358139926       -2.5027322685       -1.6899095695
 H         -3.8217065150        1.2361444772        1.4295795356
 H         -3.5656369408        0.5582152403       -2.1151178518
 H         -1.5046687598        1.0361220605       -3.4134615381
 H          0.4730612712        1.9877454405       -2.2891790355
 C          0.7363507800        2.6253863610        0.3634550190
 H          0.4106092444        2.9124077483        1.3726950347
 C          1.3783304001        3.8317080962       -0.2854972581
 C          0.7173027958        5.1668505647       -0.1259832806
 C          2.0056472462        4.8784008482        0.5832516411
 H          2.9067184380        5.3617190693        0.2370157417
 H          1.9764201387        4.7275358829        1.6528681249
 H          0.7311537085        5.8510053711       -0.9602565268
 H         -0.1867189907        5.2113896289        0.4629768973
 H          1.8638917899        3.6192427585       -1.2273627681
 O          2.8352250555        1.6268076020       -1.5007180338
