  62
        -98.94472156
 C          2.0103999453        1.3537499730        0.3321080037
 C          2.6799952620        0.7931761671       -0.7825448173
 C          3.8523135936       -0.0383211044       -0.4716065945
 C          4.2108574055       -0.2222207957        0.8120792501
 C          5.3487609190       -1.0872174755        1.2696681289
 C          4.8795453566       -2.5224042840        1.5467241995
 C          4.0416500745       -3.1273196103        0.4199624074
 H          3.7919737599       -4.1497375421        0.7123891607
 H          3.0999411583       -2.5788831573        0.3390044115
 C          4.7357474877       -3.1419522158       -0.9491691894
 H          5.8112080175       -3.0139921216       -0.8205959275
 H          4.5782372169       -4.1192965020       -1.4101482305
 C          4.2149725915       -2.0952808355       -1.9360871804
 H          3.1252704281       -2.1590190602       -1.9978748007
 H          4.6122475749       -2.3348671969       -2.9260298298
 C          4.5963550234       -0.6415038101       -1.6294321042
 H          5.6749628400       -0.5682974453       -1.4762705832
 H          4.3301914468       -0.0386505413       -2.5025793947
 H          5.7583371340       -3.1452727912        1.7228979600
 H          4.2768652959       -2.5204325721        2.4580361050
 H          6.1258272408       -1.0888428800        0.5079415367
 H          5.7550371132       -0.6635567955        2.1896727227
 O          3.5358607003        0.3244938650        1.8558306205
 C          2.4148264040        1.1110099680        1.6441000548
 O          1.8698004196        1.5230658798        2.6891002440
 H         -0.1153150404       -0.1512337633        0.8647270599
 C         -0.6327850736        0.1899874621       -0.0240476841
 C         -0.2944699577        1.4236154932       -0.5683868576
 C         -0.9780728257        1.8591462123       -1.6950306921
 C         -1.9465520239        1.0600097301       -2.2794764860
 C         -2.2633345213       -0.1764703306       -1.7494470300
 C         -1.6027351418       -0.6106897711       -0.6062262112
 N         -1.9332660631       -1.8546805643       -0.0435920972
 S         -3.5524963602       -2.2602084135        0.0748410096
 O         -3.6343240417       -3.1598595990        1.2042360430
 O         -4.0132655637       -2.7897016839       -1.1844979792
 C         -4.4002261325       -0.7306542457        0.4301818384
 C         -4.0402296934       -0.0350839211        1.5674847553
 C         -4.6690935611        1.1677249387        1.8445126147
 C         -5.6429159268        1.6519262520        0.9842163286
 C         -5.9974358109        0.9388432992       -0.1501952802
 C         -5.3700038979       -0.2638253489       -0.4334624572
 H         -5.6120706238       -0.8488522075       -1.3057246226
 H         -6.7561746001        1.3168016385       -0.8161734797
 H         -6.1274305159        2.5906535531        1.2015566993
 H         -4.3938612977        1.7229956102        2.7269274009
 H         -3.2821495854       -0.4389384431        2.2197977163
 H         -1.4367962196       -2.0674492472        0.8085769072
 H         -3.0001378644       -0.8175519253       -2.2054676539
 H         -2.4590827152        1.4040779606       -3.1645927053
 H         -0.7442550088        2.8185660471       -2.1252899184
 C          0.7844718860        2.2247668913        0.1198890921
 H          0.4223448911        2.4870882336        1.1246664184
 C          1.1610436824        3.4971202157       -0.6090581018
 C          0.3594788628        4.7465182337       -0.4055072174
 C          1.7354606108        4.6355718177        0.1773724217
 H          2.5332139542        5.2152922724       -0.2621634779
 H          1.8324976512        4.5015641851        1.2452168975
 H         -0.4811636922        4.6968632381        0.2696979508
 H          0.2132422282        5.4081482667       -1.2458138508
 H          1.5789249850        3.3074932185       -1.5907571348
 O          2.3214613851        0.9758647929       -1.9743359575
