  62
        -98.93731586
 C          2.2875156372       -0.4247392202        0.3268956349
 C          3.5194924809       -0.8387183917        0.8953938140
 C          4.7146465281       -0.6583284502        0.0614263062
 C          4.5764236673       -0.1676853588       -1.1834670193
 C          5.7111269326        0.1213794162       -2.1220790010
 C          6.2094038713        1.5647782625       -1.9632530672
 C          6.4744797916        1.9714880659       -0.5136246905
 H          6.8498793227        2.9970034835       -0.5270337888
 H          5.5278404796        1.9844796792        0.0317754493
 C          7.4733043198        1.0707198402        0.2263983530
 H          8.1740298970        1.7025664245        0.7761153680
 H          8.0541110237        0.4924508443       -0.4929993422
 C          6.8375517901        0.1210329858        1.2433863685
 H          6.1798354472        0.6846708912        1.9101882627
 H          7.6359319585       -0.3052502812        1.8565433338
 C          6.0393463099       -1.0487603180        0.6541533497
 H          6.6495037975       -1.5768907832       -0.0812707338
 H          5.8091566678       -1.7393706202        1.4707507360
 H          7.1236264540        1.6804313597       -2.5481857656
 H          5.4545565712        2.2387551708       -2.3749518277
 H          6.5224874145       -0.5775479913       -1.9282209505
 H          5.3561358485       -0.0208758651       -3.1440576688
 O          3.3737686264        0.1631500660       -1.7168843027
 C          2.1986472995        0.0495839508       -0.9827412650
 O          1.1804785761        0.3905011794       -1.6121570768
 H         -1.4495314770        0.4243885893        0.4754459784
 C         -1.2760483521       -0.5830275412        0.1358140162
 C         -0.0718928100       -1.2190070304        0.3870865180
 C          0.1149631060       -2.5098541042       -0.1024794048
 C         -0.8773112271       -3.1429092545       -0.8243308234
 C         -2.0874029421       -2.5119050496       -1.0550138552
 C         -2.2815653545       -1.2226192685       -0.5761053106
 N         -3.4881505622       -0.5434408076       -0.8086903989
 S         -4.0778572280        0.4652760206        0.4088520389
 O         -3.5034508765        1.7784751108        0.2587057456
 O         -3.9013015516       -0.1638777224        1.6989010408
 C         -5.8093010289        0.5149325836       -0.0183946701
 C         -6.6811250442       -0.3657312881        0.5940862605
 C         -8.0198101881       -0.3423906572        0.2358148402
 C         -8.4613902091        0.5541708542       -0.7256913832
 C         -7.5748303175        1.4325156270       -1.3310409890
 C         -6.2350952458        1.4151921844       -0.9767847138
 H         -5.5112907981        2.0839056723       -1.4129896007
 H         -7.9221086254        2.1302570660       -2.0758976192
 H         -9.5035763651        0.5706998856       -1.0029476773
 H         -8.7119365600       -1.0213602091        0.7071753749
 H         -6.2943740870       -1.0380236356        1.3430124479
 H         -4.2103064864       -1.1377919001       -1.1916227073
 H         -2.8677790601       -3.0083480597       -1.6117634526
 H         -0.7138972767       -4.1413153184       -1.2016817976
 H          1.0572068448       -3.0069021500        0.0868069598
 C          1.0398705951       -0.5770593739        1.1771051379
 H          1.3361382923       -1.2836655380        1.9717026716
 C          0.6063870867        0.7012209346        1.8787801554
 C          1.6047879012        1.7440746663        2.2801847540
 C          0.6136818960        2.0341937425        1.1951821175
 H         -0.1987836692        2.7164517274        1.4014532381
 H          0.9584376706        2.0699435825        0.1734991213
 H          2.6352572528        1.5823135019        1.9985982700
 H          1.4830469575        2.2314701399        3.2357524653
 H         -0.2086833562        0.5219837529        2.5751765470
 O          3.6131267551       -1.3420775267        2.0469031913
