  62
        -98.93886835
 C         -0.9847967411       -1.6867526508       -0.0009018826
 C         -1.9211044180       -1.2668223760        0.9689399241
 C         -2.8506635564       -0.1930824427        0.5715564425
 C         -2.7327136976        0.3486463904       -0.6543659796
 C         -3.5719583117        1.4290977519       -1.2883351874
 C         -3.8910380887        2.6541717594       -0.4170817560
 C         -5.3613722238        2.7376105247       -0.0030561821
 H         -5.6031722800        3.7786887891        0.2226248018
 H         -5.9795560628        2.4369510711       -0.8514461093
 C         -5.7400258854        1.9018572073        1.2185563375
 H         -5.3175194261        2.3605360767        2.1153948013
 H         -6.8274279134        1.9373344846        1.3188744660
 C         -5.3000600288        0.4369007434        1.1739839638
 H         -5.4507788383        0.0216920531        0.1783082844
 H         -5.9450554247       -0.1248654289        1.8531325046
 C         -3.8472705885        0.2162452200        1.6220260187
 H         -3.4755722781        1.1100333141        2.1322368065
 H         -3.8115463364       -0.5872530939        2.3645886252
 H         -3.2513571978        2.6610921853        0.4643778983
 H         -3.6576860962        3.5485680223       -0.9974068374
 H         -3.0168649901        1.7376010112       -2.1760681233
 H         -4.5015310734        0.9787068510       -1.6447093949
 O         -1.7898130109       -0.0663229921       -1.5461651561
 C         -0.8915025296       -1.0764591230       -1.2516617603
 O         -0.0830550189       -1.3298658313       -2.1614828287
 O         -1.9801868082       -1.7663275802        2.1269235094
 C         -0.0004225489       -2.7894919623        0.3473199181
 C          1.3980723990       -2.2256292686        0.3111297921
 C          2.4346531990       -2.7664078525       -0.4363762237
 C          3.6785827065       -2.1571492145       -0.4539888280
 C          3.9177832887       -1.0062357570        0.2738909247
 C          2.8895553449       -0.4652293904        1.0354516157
 C          1.6466889369       -1.0754369689        1.0514365545
 H          0.8454403934       -0.6476607540        1.6418765732
 N          3.1171701232        0.7172485858        1.7754316878
 S          3.4510003315        2.0839858827        0.8639716969
 O          4.7557587787        1.9393791708        0.2712396760
 O          3.2794302831        3.1995996235        1.7672061093
 C          2.2003165715        2.1205248940       -0.4059479817
 C          1.0007416378        2.7477079852       -0.1349029576
 C          0.0126294903        2.7514337803       -1.1054638479
 C          0.2366155396        2.1202368846       -2.3190854904
 C          1.4402951738        1.4816350520       -2.5703000305
 C          2.4346198527        1.4800985256       -1.6058865078
 H          3.3856748808        0.9997077208       -1.7674258439
 H          1.6000449280        0.9739979103       -3.5073630678
 H         -0.5336026185        2.1149202952       -3.0738993082
 H         -0.9291290231        3.2394906677       -0.9110921197
 H          0.8691995039        3.2344724635        0.8186775371
 H          2.3637950794        0.9271650947        2.4158265670
 H          4.8740594255       -0.5089518311        0.2545740125
 H          4.4728981380       -2.5841673065       -1.0471832936
 H          2.2676561086       -3.6587772154       -1.0163816114
 H         -0.2298299976       -3.0723462858        1.3851932482
 C         -0.2002853026       -3.9957490752       -0.5439602275
 C          0.2097586638       -5.3563842611       -0.0677816348
 C         -1.2431845295       -5.0059853783       -0.1744406505
 H         -1.8275416638       -5.4560298949       -0.9628612900
 H         -1.7983027550       -4.8370239496        0.7368453567
 H          0.6221657927       -6.0514280546       -0.7833957755
 H          0.6418479151       -5.4314397249        0.9186445429
 H         -0.0815269624       -3.7624395838       -1.5957230002
