  62
        -98.94630827
 C          1.3326082810        1.2247672887        0.5303415510
 C          1.6526293179        0.4533726446       -0.6139545590
 C          2.4118029305       -0.7779553756       -0.3553177770
 C          2.6633674964       -1.1581485462        0.9098367002
 C          3.3858007486       -2.4088376364        1.3325798886
 C          4.9143033800       -2.2706892136        1.3456931994
 C          5.5713916352       -2.2175229184       -0.0340561298
 H          6.6458117417       -2.3376648812        0.1184778845
 H          5.2313306767       -3.0650224385       -0.6300083868
 C          5.3245333597       -0.9117462402       -0.8025454024
 H          4.9783742359       -0.1412361387       -0.1097454649
 H          6.2658475545       -0.5574523176       -1.2286931446
 C          4.3236537864       -1.0308375365       -1.9519960716
 H          4.7234400696       -1.7008641368       -2.7162428723
 H          4.2021209465       -0.0421935271       -2.4016039935
 C          2.9355126522       -1.5370923906       -1.5364533836
 H          2.2480172607       -1.3653900739       -2.3675126637
 H          2.9754037933       -2.6045737490       -1.3210682974
 H          5.1799457647       -1.3746099401        1.9114293547
 H          5.3153076438       -3.1331193521        1.8832755013
 H          3.0519975114       -2.6342936161        2.3479899674
 H          3.1035215610       -3.2369480631        0.6813891173
 O          2.2479100593       -0.4374589975        1.9865878897
 C          1.6035422369        0.7777165889        1.8236613555
 O          1.3108062414        1.3493435554        2.8953471654
 O          1.3325835300        0.7676151441       -1.7872378942
 C          0.5946572951        2.5473251936        0.3890524948
 C         -0.8131283882        2.2481076915       -0.0655728026
 C         -1.3331306441        2.6227775259       -1.2960157667
 C         -2.6160349886        2.2443433922       -1.6571310422
 C         -3.4033937986        1.4933861446       -0.8040933859
 C         -2.8933672027        1.1229586228        0.4342255148
 C         -1.6103490442        1.4995338936        0.7930915826
 H         -1.2086389372        1.2024670957        1.7541985032
 N         -3.6812957856        0.3406265660        1.3056731598
 S         -4.1987985132       -1.1228564870        0.6728555108
 O         -5.3441333823       -0.8951830302       -0.1712854899
 O         -4.4150212632       -1.9841170394        1.8138652228
 C         -2.8276522987       -1.7078088372       -0.3068952394
 C         -1.6740180780       -2.0854214026        0.3511729404
 C         -0.5844617299       -2.5062207560       -0.3924167086
 C         -0.6643188900       -2.5347379930       -1.7759743753
 C         -1.8268579163       -2.1465186735       -2.4221667704
 C         -2.9209096349       -1.7262254154       -1.6830845113
 H         -3.8440696549       -1.4172178599       -2.1452574601
 H         -1.8815994121       -2.1655282565       -3.4985575094
 H          0.1874466484       -2.8604629406       -2.3512000981
 H          0.3247971154       -2.7985385925        0.1085707850
 H         -1.6443828051       -2.0565675545        1.4294464789
 H         -3.2421095861        0.1895796773        2.2029842622
 H         -4.3992472449        1.1815147000       -1.0743759743
 H         -3.0062304004        2.5357946118       -2.6201482905
 H         -0.7304355420        3.1974650265       -1.9790601759
 H          0.5380866615        2.9720971923        1.4012859180
 C          1.3450611432        3.5107315433       -0.5034329475
 C          1.0631091766        4.9791056832       -0.4087574872
 C          2.3582141260        4.4295750795        0.1074475367
 H          3.2637677550        4.6373443544       -0.4426029796
 H          2.5016336942        4.3756843374        1.1771742702
 H          1.0805819720        5.5680523244       -1.3130091762
 H          0.3260620420        5.3006551495        0.3116264500
 H          1.5743308519        3.0960624460       -1.4770587860
