  62
        -98.94042286
 C          1.5898893473        1.4337012677       -0.0354857419
 C          2.6127583181        0.8978605020        0.7775043934
 C          3.2731788290       -0.3244026799        0.2837633249
 C          2.8635966544       -0.8545244440       -0.8838969837
 C          3.3695739322       -2.1248248153       -1.5097317821
 C          2.7650162041       -3.3914877649       -0.8624512196
 C          2.3961432453       -3.2551266200        0.6155297893
 H          1.8078489257       -2.3454376931        0.7557224501
 H          1.7512098983       -4.0968845917        0.8830007435
 C          3.5834394646       -3.2545079625        1.5795855718
 H          3.9863689336       -4.2690000401        1.6366599882
 H          3.2141009876       -2.9887067364        2.5734494170
 C          4.7345233799       -2.3208926195        1.2127213760
 H          5.1834895072       -2.6448919602        0.2772956081
 H          5.5033716266       -2.4293518999        1.9836401701
 C          4.3890300121       -0.8323267822        1.1617823927
 H          4.1338708457       -0.4924947096        2.1715809832
 H          5.2952251413       -0.2814099284        0.8803511119
 H          3.4631698233       -4.2201588971       -0.9863466637
 H          1.8504704625       -3.6457875924       -1.4017902897
 H          4.4554922298       -2.1355108478       -1.4570660168
 H          3.0883223443       -2.0992535633       -2.5640628101
 O          1.8651151419       -0.3117232198       -1.6313722613
 C          1.2016683185        0.8380733521       -1.2363319151
 O          0.3115809605        1.2174404965       -2.0164169550
 O          2.9493016033        1.4064597712        1.8828624565
 C          0.8401161409        2.6678434269        0.4321247505
 C         -0.6264054342        2.3394618502        0.5685317587
 C         -1.6451521155        3.1387832227        0.0686125879
 C         -2.9687648538        2.7522042742        0.1982191558
 C         -3.3056074032        1.5673595665        0.8256234694
 C         -2.2937951781        0.7657475414        1.3387262385
 C         -0.9716216898        1.1583888188        1.2148775229
 H         -0.1865846039        0.5278803638        1.6150321763
 N         -2.6216124912       -0.4563979439        1.9631038378
 S         -3.4777828434       -1.5461961738        1.0168728007
 O         -4.8579225284       -1.1349164137        0.9621452055
 O         -3.2249944601       -2.8423086315        1.6060809027
 C         -2.7402751199       -1.4343267519       -0.6012993263
 C         -3.3668328602       -0.7025099641       -1.5887672281
 C         -2.7465724608       -0.5726821659       -2.8205026863
 C         -1.5185878955       -1.1739480528       -3.0424683979
 C         -0.9054936890       -1.9107028474       -2.0419020263
 C         -1.5146075809       -2.0364049792       -0.8051990520
 H         -1.0634190721       -2.5997300739       -0.0026851791
 H          0.0551153851       -2.3668667718       -2.2184035647
 H         -1.0288895291       -1.0615191615       -3.9964144701
 H         -3.2169207371        0.0045257168       -3.5999998550
 H         -4.3234646538       -0.2537454466       -1.3772967310
 H         -1.8192871252       -0.9191401729        2.3667259911
 H         -4.3293613915        1.2435076964        0.9210754872
 H         -3.7493017289        3.3812298250       -0.2016284982
 H         -1.4037469817        4.0611208312       -0.4332107703
 H          1.2384695378        2.8948443872        1.4323389857
 C          1.1184923196        3.8422590425       -0.4814749024
 C          1.0638500642        5.2425019133        0.0502541084
 C          2.3839982586        4.6216460458       -0.2916003883
 H          2.9104756071        4.9725175703       -1.1664589809
 H          3.0345991807        4.3211932544        0.5168865408
 H          0.6856922557        6.0240063017       -0.5913567456
 H          0.8209230877        5.3726040638        1.0940527679
 H          0.7875128746        3.6649242717       -1.4984197388
