  62
        -98.93129850
 C         -2.4999433813       -1.2492320050       -0.3815920933
 C         -2.2078158269        0.0820431336        0.0007327179
 C         -3.3328877358        0.8734656490        0.5411795516
 C         -4.5478658127        0.3100131286        0.6656954943
 C         -5.8528551098        0.8529492339        1.2101820771
 C         -6.0441688799        2.3502183626        1.4373699779
 C         -6.0739203348        3.1920438122        0.1621459395
 H         -6.9918265129        2.9617677129       -0.3845468358
 H         -6.1131809210        4.2450286066        0.4492989327
 C         -4.9032786348        2.9810586296       -0.7947201253
 H         -5.0535511228        3.6372082153       -1.6563185177
 H         -4.9148145491        1.9546852207       -1.1670193738
 C         -3.5224387513        3.2838781571       -0.2159102384
 H         -3.5097989247        4.2948188589        0.1960391439
 H         -2.8051300765        3.2505693895       -1.0404845672
 C         -3.0282877291        2.3076804381        0.8661675501
 H         -1.9381136551        2.3849434133        0.9212507520
 H         -3.4209720513        2.5701304846        1.8456771928
 H         -5.2922568523        2.7260888273        2.1250764112
 H         -7.0119513656        2.4676923583        1.9325940001
 H         -6.0138870177        0.3352707369        2.1623634417
 H         -6.6309208463        0.4923744559        0.5297062065
 O         -4.7708498020       -0.9924832749        0.3208704380
 C         -3.7722099584       -1.7952055829       -0.1971733832
 O         -4.1363163734       -2.9612481684       -0.4486079817
 O         -1.0695983018        0.6094560699       -0.0974239766
 C         -1.4428550172       -2.1886713644       -0.9389506062
 C         -0.2164325655       -2.1487798666       -0.0618389824
 C         -0.2749427604       -2.7365954599        1.1984485010
 C          0.8139829350       -2.6931876841        2.0477986110
 C          1.9838222520       -2.0637350930        1.6593434392
 C          2.0481625327       -1.4648593647        0.4090087689
 C          0.9536040576       -1.5160856091       -0.4463000620
 H          1.0041265691       -1.0260632906       -1.4061350235
 N          3.2336332051       -0.8332775975       -0.0123566037
 S          4.1254609510        0.0527477783        1.1135769620
 O          4.8560874571       -0.8715596934        1.9456231773
 O          3.2809906535        0.9959026207        1.8120933625
 C          5.2558509491        0.9058759807        0.0317186677
 C          6.4393025858        0.2860129086       -0.3214064897
 C          7.3054180459        0.9383034481       -1.1844388565
 C          6.9750857307        2.1916226534       -1.6779643224
 C          5.7838562592        2.8015720597       -1.3139512882
 C          4.9126803808        2.1542662595       -0.4518468621
 H          3.9803780905        2.5948844468       -0.1353319135
 H          5.5305951841        3.7770152663       -1.6972081284
 H          7.6510194682        2.6984094857       -2.3484973355
 H          8.2334003811        0.4687683372       -1.4682644876
 H          6.6564804841       -0.6839609603        0.0942151742
 H          3.0836640257       -0.2862088562       -0.8495760447
 H          2.8364321102       -2.0140786644        2.3170302223
 H          0.7537806390       -3.1501838644        3.0245067990
 H         -1.1928890384       -3.2184200763        1.5082197793
 H         -1.8861691892       -3.1934592843       -0.8475267538
 C         -1.1331843622       -1.9883212244       -2.4149391403
 C         -2.2278583903       -1.6414904989       -3.3785358204
 C         -1.1480237079       -0.6469842004       -3.0815859682
 H         -0.4114830241       -0.4513506026       -3.8476234478
 H         -1.3898232074        0.2138948801       -2.4792017531
 H         -2.2364250858       -2.1233035913       -4.3445457018
 H         -3.2122041569       -1.4672708190       -2.9683090996
 H         -0.3892320683       -2.6973343263       -2.7658778508
