  62
        -98.93195083
 C          1.8873232543        1.0039914307        0.6913258029
 C          2.1230593220        0.3694870888       -0.5524782967
 C          2.6668617555       -0.9976076173       -0.4872390960
 C          2.8346546555       -1.5853485065        0.7101732854
 C          3.4483773470       -2.9371865299        0.9412895362
 C          4.9828768003       -2.8472029012        0.8137494589
 C          5.5658265422       -3.6262642322       -0.3656282390
 H          6.6061403494       -3.3145301790       -0.4797110199
 H          5.5651245385       -4.6906348734       -0.1218011029
 C          4.8433846953       -3.4525048649       -1.7051451622
 H          5.5120325206       -3.8367171403       -2.4783048078
 H          3.9510559717       -4.0798952338       -1.7249532968
 C          4.4412361237       -2.0179915107       -2.0712007522
 H          4.6035623937       -1.8826373174       -3.1423366764
 H          5.0792550153       -1.2970652562       -1.5595547555
 C          2.9644393328       -1.6763545726       -1.7957530331
 H          2.6176173820       -0.9734853900       -2.5591677467
 H          2.3553865262       -2.5804705032       -1.8828629162
 H          5.2568833505       -1.7936153438        0.7270456403
 H          5.4454961482       -3.2169005606        1.7300992663
 H          3.1666058316       -3.2533733225        1.9459731424
 H          3.0438594752       -3.6501711017        0.2262458837
 O          2.5289136938       -0.9692918657        1.8828222420
 C          2.0435266115        0.3274625490        1.9021357520
 O          1.7913663990        0.7614753106        3.0455951107
 O          1.9011503389        0.9079174293       -1.6680328822
 C          1.3209674711        2.4109613160        0.7700773127
 C          0.1580988669        2.5476944499       -0.1833959840
 C          0.0261091394        3.5746802378       -1.1077019789
 C         -1.0879379702        3.6356154485       -1.9276418886
 C         -2.0869827657        2.6850919932       -1.8423045948
 C         -1.9577384881        1.6441553367       -0.9272862466
 C         -0.8484570089        1.5923458524       -0.1018650032
 H         -0.7567916027        0.7853441000        0.6125521884
 N         -2.9315669552        0.6343517112       -0.8579148626
 S         -3.0951597564       -0.2940231441        0.5343795314
 O         -3.2085864710        0.5567692173        1.6993062119
 O         -2.0477757973       -1.2857408152        0.5621070563
 C         -4.6616038473       -1.0781092836        0.2006330996
 C         -5.8169934317       -0.5344957507        0.7299035579
 C         -7.0335019364       -1.1327423847        0.4409510317
 C         -7.0743645761       -2.2567078572       -0.3702975124
 C         -5.9064397494       -2.7919174948       -0.8932233548
 C         -4.6867960985       -2.1991411309       -0.6073418002
 H         -3.7523613919       -2.5833310302       -0.9823731804
 H         -5.9412985129       -3.6676771759       -1.5209311212
 H         -8.0219167086       -2.7206250573       -0.5940494755
 H         -7.9423431023       -0.7211133350        0.8492171470
 H         -5.7345620906        0.3341523551        1.3631778729
 H         -3.8216072343        0.9035227920       -1.2528477969
 H         -2.9519735112        2.7332280928       -2.4857884847
 H         -1.1783204324        4.4376835650       -2.6445041415
 H          0.8017198276        4.3167119309       -1.2013985215
 H          0.9130697849        2.4918427541        1.7928485684
 C          2.3592570625        3.5145566723        0.6294738009
 C          3.8018305840        3.2640925233        0.9513339472
 C          3.3827316009        3.5146210488       -0.4645043300
 H          3.6493028048        4.4593106640       -0.9154824354
 H          3.3707195041        2.6863658454       -1.1544861577
 H          4.3504251449        4.0338998772        1.4731968107
 H          4.0831457426        2.2597184578        1.2342775785
 H          1.9654686549        4.4806304852        0.9303300984
