  62
        -98.94423725
 C         -2.2546110778       -1.1005950751        0.2305648329
 C         -2.3703178997        0.0584687983       -0.5744230244
 C         -3.2532978995        1.1155925625       -0.0572145489
 C         -3.8585619941        0.9551206811        1.1328931689
 C         -4.8149496556        1.9315881628        1.7520973758
 C         -6.2640880430        1.6229235244        1.3499745113
 C         -6.4586854440        1.4195699450       -0.1525323975
 H         -5.9264870537        0.5171996230       -0.4617974129
 H         -7.5225151813        1.2394174363       -0.3210119245
 C         -5.9970124507        2.6002637208       -1.0180422961
 H         -5.9061020573        3.4969806427       -0.4040366800
 H         -6.7596770948        2.8005073208       -1.7735193813
 C         -4.6828840079        2.3635383366       -1.7646108782
 H         -4.7357624724        1.4172883784       -2.3088487308
 H         -4.5631624345        3.1601747601       -2.5037902841
 C         -3.4168112795        2.3506696189       -0.8984143349
 H         -2.5528531675        2.3741596408       -1.5694363875
 H         -3.3867845248        3.2470141812       -0.2752587588
 H         -6.8986336836        2.4417708135        1.6935880346
 H         -6.5781497425        0.7107835943        1.8624584330
 H         -4.7243648108        1.8585853569        2.8372012731
 H         -4.5468925894        2.9401314101        1.4430332435
 O         -3.6987127046       -0.1558016230        1.8949509862
 C         -2.9057261276       -1.2040214079        1.4648040791
 O         -2.8611985284       -2.1664686769        2.2563291055
 H          0.2728120726       -0.6347678474       -1.5084805705
 C          0.7656545868       -1.0973000370       -0.6666284121
 C          0.0581505542       -1.9820703674        0.1345393451
 C          0.6960909493       -2.5327519363        1.2404227938
 C          2.0089350261       -2.2066788345        1.5314060715
 C          2.7094630024       -1.3214172961        0.7313370929
 C          2.0758794572       -0.7554145578       -0.3667046681
 N          2.7726535107        0.1657318973       -1.1736143050
 S          3.4184536116        1.5072636183       -0.3918675695
 O          2.6760522360        1.8336136620        0.8047753764
 O          3.4995017557        2.5395416874       -1.4024575446
 C          5.0688088903        0.9897585680        0.0338342899
 C          5.4872413664        1.0303784287        1.3493090815
 C          6.7790376422        0.6299175206        1.6542424022
 C          7.6248074650        0.1991678328        0.6436187981
 C          7.1898905327        0.1666480697       -0.6731280464
 C          5.9002222060        0.5662617539       -0.9847054585
 H          5.5235904711        0.5602954290       -1.9938640150
 H          7.8505060063       -0.1689608221       -1.4561900869
 H          8.6290107256       -0.1125325456        0.8838552744
 H          7.1186945461        0.6551041378        2.6772277727
 H          4.7923019848        1.3677891085        2.1018542214
 H          2.2348422007        0.4649992473       -1.9756422037
 H          3.7297899826       -1.0570411470        0.9569863377
 H          2.4910945394       -2.6434928175        2.3926799001
 H          0.1451265810       -3.2038421032        1.8837245582
 C         -1.3912834341       -2.2959667094       -0.1502386388
 H         -1.6960913157       -3.1056492279        0.5258242956
 C         -1.6106729113       -2.7566458248       -1.5773705212
 C         -1.1893687986       -4.1414609734       -1.9633649555
 C         -2.6453614482       -3.8032801134       -1.8559333067
 H         -3.2269109061       -3.7236392836       -2.7622066265
 H         -3.2001082817       -4.1943031422       -1.0152167820
 H         -0.7564150287       -4.7632804322       -1.1944965982
 H         -0.7686330536       -4.2970044763       -2.9448092840
 H         -1.4949676631       -1.9705495606       -2.3113673874
 O         -1.7813830383        0.2264226475       -1.6767833948
