  62
        -98.93011139
 C         -1.6529003996       -0.0714528310       -0.9108687203
 C         -2.9518853995       -0.2937796918       -1.4284196203
 C         -4.0680900797        0.3684965789       -0.7333172912
 C         -3.8013040199        1.1310425401        0.3410921280
 C         -4.7877387502        1.8320849809        1.2338556371
 C         -5.1601321803        0.9438094322        2.4334466980
 C         -6.3262921101       -0.0135337382        2.1906124089
 H         -6.4017121502       -0.6623870273        3.0663181596
 H         -7.2538759002        0.5593162316        2.1270198781
 C         -6.2059382598       -0.8887804796        0.9404180298
 H         -5.1874824197       -1.2726171695        0.8562873504
 H         -6.8654825997       -1.7493172795        1.0692241207
 C         -6.5951213497       -0.1536452710       -0.3506392610
 H         -7.3231450895       -0.7522217817       -0.9022951705
 H         -7.0951689198        0.7797339992       -0.0927144421
 C         -5.4349087095        0.1306986881       -1.3155434412
 H         -5.6979645895        0.9858764473       -1.9472418821
 H         -5.3038848493       -0.7235049227       -1.9873651102
 H         -4.2708826602        0.3756044926        2.7184295588
 H         -5.4216175305        1.5858251931        3.2770605773
 H         -5.6704818201        2.1295646102        0.6757860366
 H         -4.2877537703        2.7281293214        1.6068956762
 O         -2.5374605400        1.3239624607        0.8040563480
 C         -1.4309673499        0.7430716202        0.2003965588
 O         -0.3524821200        1.0317853009        0.7459961887
 O         -3.1720963492       -1.0279474329       -2.4306961095
 C         -0.4934096494       -0.7707741017       -1.6110271294
 C          0.2994563006       -1.5549210705       -0.5984345984
 C         -0.2238007494       -2.7902925501       -0.2121892471
 C          0.3941342806       -3.5634257790        0.7500763738
 C          1.5743489504       -3.1389738382        1.3360746536
 C          2.1060330303       -1.9135977285        0.9619422523
 C          1.4621873804       -1.1235894796        0.0183318513
 H          1.8833264303       -0.1597475398       -0.1961726596
 N          3.3021188602       -1.4365118678        1.5220105720
 S          4.4399099903       -0.7667910888        0.4924784915
 O          4.3741470906       -1.3677414402       -0.8203481279
 O          5.7004446402       -0.9153538178        1.1907225618
 C          4.0458631401        0.9653824711        0.3921950095
 C          4.2562991902        1.6232511998       -0.8034196912
 C          3.9950735600        2.9819760097       -0.8761744727
 C          3.5318025898        3.6553333809        0.2430583365
 C          3.3275700597        2.9798836721        1.4366330272
 C          3.5900684698        1.6220428123        1.5175251287
 H          3.4332280097        1.0662904232        2.4268540293
 H          2.9592296194        3.5052353430        2.3030312066
 H          3.3241863296        4.7122286008        0.1843139853
 H          4.1486268001        3.5067195687       -1.8052672033
 H          4.6034010104        1.0590165189       -1.6539262005
 H          3.7309276402       -2.0500815270        2.1995228727
 H          2.0728482804       -3.7454274273        2.0772824843
 H         -0.0364822093       -4.5109172387        1.0374241048
 H         -1.1397672192       -3.1337840807       -0.6737306069
 H         -0.9873911592       -1.5135077624       -2.2580218486
 C          0.2053203207        0.1837663774       -2.5705064003
 C          1.0473702105        1.3564607779       -2.1704684014
 C          1.6730394907        0.1889266072       -2.8753701000
 H          1.9668918309        0.3249373061       -3.9061971201
 H          2.3254500007       -0.4726983521       -2.3263660792
 H          0.9183353104        2.2749867473       -2.7254780324
 H          1.2339463803        1.5202228091       -1.1215545816
 H         -0.4478702892        0.3653428664       -3.4214145306
