  62
        -98.94418879
 C         -1.6700257411       -1.3283049493        0.2635919308
 C         -1.3006834305       -0.2456610997       -0.5648593795
 C         -1.9119142296        1.0574132908       -0.2580530697
 C         -2.7650988294        1.1491861116        0.7763680003
 C         -3.5218188886        2.3633929122        1.2405847901
 C         -4.9034751786        2.4442006830        0.5685727102
 C         -4.9272195482        3.1781674527       -0.7713279400
 H         -5.9304761683        3.0615610533       -1.1874250998
 H         -4.7650807174        4.2440924126       -0.5985495302
 C         -3.9070448586        2.6873653418       -1.8011261399
 H         -3.8801758993        1.5962863218       -1.7985152897
 H         -4.2496631685        3.0021999118       -2.7885725000
 C         -2.4941690482        3.2417907609       -1.5640796402
 H         -2.5416324876        4.0470480511       -0.8314948304
 H         -2.1187736780        3.6860708504       -2.4883304803
 C         -1.4568894289        2.2013199603       -1.1224451100
 H         -1.0228739893        1.7252923498       -2.0077917699
 H         -0.6319520985        2.7036990298       -0.6032463302
 H         -5.2714201193        1.4234767132        0.4367533305
 H         -5.5914385782        2.9542784936        1.2459016201
 H         -3.6628958086        2.2442509726        2.3171386702
 H         -2.9420678880        3.2651750118        1.0665761899
 O         -3.1062153101        0.0755711820        1.5437054006
 C         -2.5545961510       -1.1732642284        1.3277581109
 O         -2.9256411415       -2.0519001080        2.1346850011
 H          0.4263568491       -1.0919071604        1.6344569706
 C          1.0513790387       -1.6700898209        0.9690226607
 C          0.4733641680       -2.5586654408        0.0713466509
 C          1.3094043174       -3.2948346115       -0.7597072890
 C          2.6818897776       -3.1217336524       -0.7089298191
 C          3.2475554083       -2.1963309026        0.1490742906
 C          2.4202848588       -1.4623028819        0.9905118205
 N          2.9375545396       -0.4833307020        1.8669089302
 S          2.4949461106        1.1043764282        1.5480651999
 O          3.2261649412        1.8970553879        2.5146017197
 O          1.0613357307        1.2344431292        1.5724103300
 C          3.1504542907        1.4144929374       -0.0823626602
 C          4.3932927111        2.0111034965       -0.1842391105
 C          4.9542624811        2.1866815959       -1.4383130605
 C          4.2702055807        1.7539791061       -2.5647229304
 C          3.0267894003        1.1538717369       -2.4439271301
 C          2.4556711903        0.9776489576       -1.1920870401
 H          1.4867137900        0.5154995883       -1.0798845499
 H          2.4887274600        0.8136589571       -3.3141160200
 H          4.7076277307        1.8849489355       -3.5419573505
 H          5.9206212114        2.6552120252       -1.5329863207
 H          4.8850837014        2.3333635764        0.7195411994
 H          3.9433981395       -0.5230930327        1.9661097202
 H          4.3155706884       -2.0392630033        0.1689602805
 H          3.3175563171       -3.7009542130       -1.3609163990
 H          0.8837839569       -4.0014508814       -1.4533738788
 C         -1.0315145321       -2.6879747197        0.0500278711
 H         -1.3390652524       -3.3089354993        0.9048096613
 C         -1.5554008526       -3.3169297997       -1.2260015587
 C         -1.7086192736       -4.8035146696       -1.3367096584
 C         -2.9215473730       -3.9318629288       -1.2183251885
 H         -3.5523939530       -3.8000630285       -2.0845230684
 H         -3.4600243829       -3.9240246282       -0.2814333584
 H         -1.4322646840       -5.4014312296       -0.4814237983
 H         -1.5102237240       -5.2727192800       -2.2886150283
 H         -1.2606996323       -2.7633848901       -2.1101825189
 O         -0.4909150806       -0.3627262505       -1.5234706995
