  62
        -98.94072988
 C          1.1220267350        1.4228081909        0.1074318482
 C          1.6444892728        0.5563428815        1.0943248735
 C          2.5227062097       -0.5359980660        0.6356052701
 C          2.7488476643       -0.6690275740       -0.6846910173
 C          3.6584787497       -1.6459278273       -1.3819533591
 C          5.1447802433       -1.2816371880       -1.2328091746
 C          5.5714638697       -0.8704683354        0.1737144414
 H          6.6132800897       -0.5433653237        0.1217279630
 H          4.9788394923       -0.0110571436        0.4921972577
 C          5.4797926341       -1.9698750395        1.2292472188
 H          6.0985942141       -2.8157771897        0.9216257381
 H          5.9038257251       -1.5685220402        2.1533308289
 C          4.0714291360       -2.4828312364        1.5374876930
 H          3.7279041316       -3.1696272543        0.7685975430
 H          4.1309453748       -3.0607892745        2.4644624593
 C          3.0350799005       -1.3881943841        1.7716182645
 H          2.1440685229       -1.8421798452        2.2229349094
 H          3.4148621374       -0.6920230182        2.5281509324
 H          5.3559310966       -0.4435803328       -1.9014119272
 H          5.7424590427       -2.1334550335       -1.5617664944
 H          3.4728906976       -2.6558507153       -1.0284425175
 H          3.4040765792       -1.6107408773       -2.4434164264
 O          2.1673828274        0.1491067243       -1.6055642687
 C          1.3291614353        1.1894619697       -1.2522003383
 O          0.8514878651        1.8115014276       -2.2179337422
 H         -1.1559194903        0.7020574295        1.7707644346
 C         -1.7489619707        1.1656667352        0.9927010030
 C         -1.1930936633        2.2038215320        0.2534110684
 C         -1.9554939765        2.7868996816       -0.7490146922
 C         -3.2394794500        2.3334945297       -1.0038641462
 C         -3.7879102176        1.2978980552       -0.2690041437
 C         -3.0317309871        0.7118145166        0.7380183897
 N         -3.5704324721       -0.3681083590        1.4767768471
 S         -3.8297214749       -1.7546141910        0.5710812915
 O         -4.9736128419       -1.5483559755       -0.2793016976
 O         -3.9303028486       -2.8345363248        1.5262398208
 C         -2.3562690637       -1.9319247780       -0.4187634471
 C         -1.2497644443       -2.5332947603        0.1465508794
 C         -0.0870276720       -2.6337377337       -0.5991658521
 C         -0.0489898370       -2.1238674620       -1.8877447010
 C         -1.1629795985       -1.5078077376       -2.4351036401
 C         -2.3302094110       -1.4088579524       -1.6955825620
 H         -3.2193308968       -0.9444472894       -2.0893511185
 H         -1.1207965691       -1.0976711571       -3.4312787862
 H          0.8555363795       -2.2013486580       -2.4694408820
 H          0.7852756511       -3.1028089435       -0.1728645582
 H         -1.3209476430       -2.9266301883        1.1483275601
 H         -3.0061293616       -0.6036169578        2.2820406045
 H         -4.7788651817        0.9224033070       -0.4670383601
 H         -3.8202731356        2.7922627771       -1.7895730190
 H         -1.5390436628        3.5843009088       -1.3416194452
 C          0.2369918422        2.5761036697        0.5537460022
 H          0.3481840114        2.6200520063        1.6465014293
 C          0.6721960496        3.8996835955       -0.0338790830
 C          0.1947309086        5.1733722903        0.5951882018
 C          1.6283250121        4.7603421787        0.7341898059
 H          2.3798428617        5.3096972397        0.1873018477
 H          1.9655811862        4.4004559663        1.6954147900
 H         -0.0390623974        6.0098995388       -0.0452833438
 H         -0.4427737842        5.0922735233        1.4626939332
 H          0.7847132158        3.8740605926       -1.1105194013
 O          1.3967147348        0.6900382522        2.3250983814
