  62
        -98.94667194
 C          1.1751408012        1.3641144328        0.2809074259
 C          1.3654962071        0.3212502581       -0.6579574026
 C          2.3509959246       -0.7017266030       -0.2833830494
 C          2.9423277014       -0.6607071418        0.9232898550
 C          3.9538202918       -1.6410457542        1.4517557136
 C          5.3939752253       -1.3403508423        1.0136674704
 C          5.7012082123       -1.6412352533       -0.4539964916
 H          6.7859283861       -1.5946810450       -0.5696404960
 H          5.3935855441       -2.6610467497       -0.6872083306
 C          5.0574975375       -0.6663132097       -1.4500395139
 H          5.7985172979       -0.3650737991       -2.1940195106
 H          4.7471481337        0.2397773701       -0.9245714889
 C          3.8582026133       -1.2336604957       -2.2101418538
 H          3.4626346351       -0.4478055503       -2.8586266994
 H          4.1853725104       -2.0600215723       -2.8450919493
 C          2.7166675164       -1.7287436549       -1.3118085972
 H          1.8369856403       -1.9013514027       -1.9360079024
 H          2.9979030785       -2.6659679118       -0.8334157066
 H          6.0575396365       -1.9481115286        1.6331931300
 H          5.6126397137       -0.2909349435        1.2243603292
 H          3.9063556008       -1.5823039264        2.5412591813
 H          3.6887473998       -2.6527566664        1.1436251695
 O          2.6603399711        0.3037416929        1.8378627126
 C          1.8117985917        1.3505174462        1.5271638974
 O          1.6988906046        2.1996094627        2.4337007185
 H         -1.2661303395        0.8639392602       -1.3962392788
 C         -1.8132546094        1.3141417392       -0.5811481636
 C         -1.1690767247        2.2186178308        0.2512798952
 C         -1.8782305371        2.7621156462        1.3159003528
 C         -3.1988825944        2.4107421817        1.5389763361
 C         -3.8364342211        1.5046046196        0.7097372604
 C         -3.1306151584        0.9501073143       -0.3495164671
 N         -3.7555968480       -0.0236012262       -1.1660846656
 S         -3.9722987802       -1.5050785665       -0.4148010796
 O         -4.4180742021       -2.4138309355       -1.4457523154
 O         -4.8604836818       -1.3240185211        0.7049233797
 C         -2.3557415111       -1.9892901328        0.1672203991
 C         -1.6195065624       -2.8920325862       -0.5726364726
 C         -0.3557005258       -3.2481048084       -0.1320238492
 C          0.1552574381       -2.6821245755        1.0251592272
 C         -0.5882722129       -1.7619477637        1.7469743352
 C         -1.8590437183       -1.4133922581        1.3199563304
 H         -2.4682692410       -0.7134057325        1.8686147044
 H         -0.1796134360       -1.3094197119        2.6373719936
 H          1.1384018616       -2.9575282293        1.3714924620
 H          0.2279985379       -3.9607862222       -0.6919804281
 H         -2.0546679559       -3.3074336318       -1.4675304486
 H         -3.2552960647       -0.1761058217       -2.0320522327
 H         -4.8546299607        1.1968990391        0.8835106339
 H         -3.7360693652        2.8429875165        2.3695834870
 H         -1.3807237135        3.4520605309        1.9821168344
 C          0.2808530809        2.5692012277        0.0250487892
 H          0.5659079078        3.3136341479        0.7801927586
 C          0.4946170435        3.1750725474       -1.3488134837
 C          0.0794281384        4.5939968036       -1.5887228886
 C          1.5341637121        4.2383089323       -1.5271366264
 H          2.1089565209        4.2489232550       -2.4410749272
 H          2.0967556722        4.5399312368       -0.6552521502
 H         -0.3441671610        5.1385213046       -0.7583271137
 H         -0.3473095867        4.8514257023       -2.5459362842
 H          0.3658045586        2.4690533462       -2.1582538820
 O          0.7662005978        0.2268635580       -1.7623321715
