  62
        -98.93354910
 C         -2.3995423858       -1.0989129212        0.3270229223
 C         -2.4784631381        0.1391145591        1.0126318647
 C         -3.6499034144        0.9955811466        0.7453628005
 C         -4.5851362302        0.5557254101       -0.1166963018
 C         -5.8455497748        1.2451647951       -0.5684931736
 C         -5.5790534521        2.3686458374       -1.5820120349
 C         -4.4166931669        3.2908488351       -1.2247637946
 H         -3.5040919263        2.6990780006       -1.1299150762
 H         -4.2698159208        3.9794922856       -2.0610268944
 C         -4.6138524447        4.1258524696        0.0383220635
 H         -3.7630630212        4.8083150410        0.1104842019
 H         -5.5169046430        4.7307869925       -0.0689292363
 C         -4.7038963565        3.3443146235        1.3512699913
 H         -5.6877817607        2.9015433140        1.4808845110
 H         -4.5768665783        4.0626234079        2.1664511496
 C         -3.6243201977        2.2821504801        1.5349154603
 H         -3.6078469451        1.9781596931        2.5887075265
 H         -2.6404333464        2.7308568828        1.3529875160
 H         -6.4919447924        2.9562061488       -1.6927573737
 H         -5.3539903457        1.9077002384       -2.5467638300
 H         -6.4619707642        0.4823865444       -1.0491878088
 H         -6.3936455615        1.6213170422        0.2901502657
 O         -4.4717240058       -0.6439159792       -0.7508669882
 C         -3.3979710229       -1.4948778630       -0.5626587374
 O         -3.4738753848       -2.5427695312       -1.2335861800
 O         -1.6012796383        0.5224630349        1.8356654903
 C         -1.1901277218       -1.9697158708        0.6204638514
 C         -0.1378020198       -1.8490958969       -0.4565669525
 C         -0.3697718740       -2.2901699655       -1.7554737959
 C          0.6166917791       -2.1749487717       -2.7174265640
 C          1.8467189855       -1.6231379317       -2.4063889834
 C          2.0917038505       -1.1856259365       -1.1096422247
 C          1.0989173706       -1.3008989915       -0.1463301152
 H          1.2923768266       -0.9399575596        0.8528407502
 N          3.3529592477       -0.6710107417       -0.7630986812
 S          3.4747753136        0.5463109830        0.3990243566
 O          3.3016228514       -0.0380593930        1.7048022829
 O          2.6053619334        1.6511876185        0.0602247342
 C          5.1832943826        1.0064474986        0.1771040981
 C          5.5011634405        2.1749889882       -0.4880138986
 C          6.8363933599        2.5005097344       -0.6704702196
 C          7.8250117532        1.6551103230       -0.1902906767
 C          7.4903209833        0.4854369925        0.4762743042
 C          6.1578316147        0.1552898832        0.6639191724
 H          5.8499456652       -0.7369590049        1.1835002105
 H          8.2616901279       -0.1680868499        0.8505129979
 H          8.8629485630        1.9105322850       -0.3341228893
 H          7.0993791605        3.4106305920       -1.1850698782
 H          4.6984808042        2.8040283739       -0.8381813713
 H          3.9175333748       -0.4533759965       -1.5735514778
 H          2.6141431395       -1.5351373500       -3.1604576652
 H          0.4237279727       -2.5157105659       -3.7235633356
 H         -1.3332941787       -2.7067306391       -2.0047775064
 H         -0.7606167533       -1.5574966835        1.5444219976
 C         -1.5399849599       -3.4253874978        0.8638757009
 C         -0.5706247177       -4.2830926655        1.6181635799
 C         -1.8663706500       -3.8785474307        2.2535042515
 H         -2.6349048670       -4.6254963689        2.3837842787
 H         -1.8395467130       -3.1375320660        3.0395654371
 H         -0.4462091189       -5.3104796415        1.3127622691
 H          0.3357434170       -3.8154254390        1.9735593493
 H         -2.0906463502       -3.8786325866        0.0502913994
