  62
        -98.94256485
 C         -2.7033499793       -1.2187855201        0.1523561393
 C         -2.5674011693       -0.3023509801       -0.9185624107
 C         -3.5548061195        0.7867250297       -0.9565091209
 C         -4.5208053096        0.8378494296       -0.0219172210
 C         -5.5432446698        1.9297987994        0.0962778989
 C         -5.0485508401        3.0502155295        1.0223276489
 C         -3.6339544301        3.5363142797        0.7057933491
 H         -3.4050022203        4.3440761298        1.4042840691
 H         -2.9251911800        2.7291508399        0.9058266292
 C         -3.4404120100        4.0350924597       -0.7330905009
 H         -2.8769278201        4.9700573698       -0.7061459809
 H         -4.4096970200        4.2540892996       -1.1825393711
 C         -2.6672193997        3.0752674498       -1.6393328708
 H         -1.7354067197        2.7792103900       -1.1504901407
 H         -2.4017676497        3.6113624698       -2.5543777508
 C         -3.4166715395        1.8030508897       -2.0547469109
 H         -4.3940498695        2.0666609395       -2.4635483510
 H         -2.8339544793        1.3160070198       -2.8420677308
 H         -5.7463656702        3.8868269294        0.9549348388
 H         -5.0604090201        2.6796993096        2.0500003589
 H         -5.7581396197        2.3293322694       -0.8928092212
 H         -6.4572475498        1.5031572493        0.5126324988
 O         -4.6423099496       -0.0836270704        0.9678455890
 C         -3.7267803194       -1.1137803903        1.0961702592
 O         -3.9299089294       -1.8631509103        2.0727399692
 O         -1.6729987492       -0.3794457100       -1.8006966006
 C         -1.6971140192       -2.3425133900        0.3448536794
 C         -0.3632100493       -1.7133367598        0.6670049796
 C         -0.1793140195       -1.1525475197        1.9288465396
 C          1.0022675503       -0.5142326695        2.2512272797
 C          2.0211421604       -0.4069790894        1.3194095798
 C          1.8482409207       -0.9620156494        0.0592651798
 C          0.6654461708       -1.6232055096       -0.2554840003
 H          0.5412648410       -2.0409049597       -1.2416184003
 N          2.8482899208       -0.8247119593       -0.9093084100
 S          4.4683621507       -0.8141687991       -0.5172962299
 O          5.1532596609       -1.0891963890       -1.7612518498
 O          4.7604504407       -1.7063134590        0.5809719502
 C          4.7880662704        0.8703487510       -0.0340956999
 C          5.5549741702        1.1256910911        1.0858362402
 C          5.8087045200        2.4416389712        1.4400324802
 C          5.2945278999        3.4742388211        0.6711892901
 C          4.5282214101        3.2012617610       -0.4520805599
 C          4.2726598903        1.8878962009       -0.8126881899
 H          3.6785146505        1.6385985208       -1.6762635400
 H          4.1274290301        4.0063972109       -1.0467641700
 H          5.4902920897        4.4977570511        0.9494420701
 H          6.4038211898        2.6556820013        2.3132367803
 H          5.9269547603        0.2917700512        1.6595571703
 H          2.6543641709       -1.2688350994       -1.7931474901
 H          2.9433371103        0.0937424808        1.5645825699
 H          1.1321658102       -0.0878863295        3.2344495397
 H         -0.9831865096       -1.2197028698        2.6495140695
 H         -2.0327222092       -2.9011075000        1.2290403394
 C         -1.6738537589       -3.2811191500       -0.8422890305
 C         -1.0512364287       -4.6362573899       -0.6969718004
 C         -2.5388216687       -4.5036869901       -0.8212276506
 H         -3.0100445385       -4.8170412102       -1.7407894407
 H         -3.1437249988       -4.6722062602        0.0578440993
 H         -0.5004673585       -5.0454902098       -1.5303978204
 H         -0.6434781788       -4.8960620798        0.2684269196
 H         -1.5661798888       -2.7694898900       -1.7907690805
