  62
        -98.93804378
 C         -1.3918740507       -1.4767533299       -0.1117529907
 C         -2.5576951404       -1.2719145298        0.6652770997
 C         -3.4313462103       -0.1492043195        0.2769439204
 C         -3.0772559105        0.6182804407       -0.7692138595
 C         -3.7901910804        1.8159348510       -1.3437413689
 C         -5.3082624705        1.6741621314       -1.5366608084
 C         -6.1247825500        2.5406159013       -0.5767618479
 H         -5.6308128098        3.5091907912       -0.4758768778
 H         -7.1072745601        2.7211141517       -1.0187033975
 C         -6.3461636297        1.9383499609        0.8098056320
 H         -6.8121612593        2.7058620608        1.4323060524
 H         -7.0538372199        1.1097644111        0.7340944520
 C         -5.0862419095        1.4326419404        1.5162803214
 H         -5.2905591392        1.4197161702        2.5890054515
 H         -4.2564522094        2.1203771403        1.3598343114
 C         -4.6771611100        0.0104258005        1.1052266609
 H         -5.5065990203       -0.4798212992        0.5865252910
 H         -4.4898311898       -0.5894572098        2.0012725206
 H         -5.5981706907        0.6286783015       -1.4412538486
 H         -5.5465917108        1.9828758418       -2.5558264582
 H         -3.5770926500        2.6848806408       -0.7168273987
 H         -3.3101211007        1.9993773112       -2.3076597690
 O         -1.9326419408        0.3976240207       -1.4756599100
 C         -1.0717930309       -0.6477012996       -1.1853170706
 O         -0.0903522012       -0.7178515596       -1.9494010609
 O         -2.8600007502       -2.0008284001        1.6474170096
 C         -0.4588340608       -2.6114879502        0.2808678286
 C          0.8214618095       -1.9890589506        0.7775369284
 C          0.8998271900       -1.5339263310        2.0909813585
 C          2.0216250403       -0.8630173714        2.5415015083
 C          3.0765802601       -0.6035691714        1.6833721780
 C          2.9986366395       -1.0406781310        0.3680715179
 C          1.8924442992       -1.7550725706       -0.0703925519
 H          1.8491231688       -2.0831331803       -1.0963254420
 N          4.0314192293       -0.7175792109       -0.5315371323
 S          4.5387727997        0.8786624690       -0.5253860720
 O          4.9472601293        1.1608853393       -1.8842715121
 O          5.5655532500        1.0447173285        0.4751867277
 C          3.1190221800        1.8681866792       -0.0771697612
 C          3.2467125506        2.7905190288        0.9424043190
 C          2.1524599109        3.5648139189        1.2915349996
 C          0.9503216106        3.4018318794        0.6205694100
 C          0.8389036800        2.4732619397       -0.4022537203
 C          1.9311690098        1.6991984896       -0.7602848209
 H          1.8426363293        0.9646380899       -1.5454651611
 H         -0.0949119902        2.3310688401       -0.9239856200
 H          0.0951202008        3.9990118695        0.8955330604
 H          2.2380355313        4.2878031787        2.0866995798
 H          4.1970423108        2.8768758085        1.4439362887
 H          3.8432079989       -1.0227717806       -1.4760202324
 H          3.9510182903       -0.0626196117        2.0078056579
 H          2.0714909607       -0.5249412717        3.5651501184
 H          0.0602946202       -1.7002975010        2.7510922387
 H         -0.9497918706       -3.1161188703        1.1230352586
 C         -0.2659922114       -3.6092892199       -0.8413344118
 C          0.3512624084       -4.9409231401       -0.5382302824
 C         -1.1067351517       -4.8488705997       -0.8712963319
 H         -1.4425646221       -5.2199902793       -1.8280807319
 H         -1.8234196315       -4.9860117098       -0.0749586917
 H          1.0187418680       -5.3787418800       -1.2646686527
 H          0.6262361287       -5.1391388605        0.4866386175
 H         -0.0360601516       -3.1493587696       -1.7947678017
