  62
        -98.94484798
 C          1.9614718560        1.1084127682       -0.2581864024
 C          3.0714490568        1.1763945545        0.6265699614
 C          4.3015468225        0.5135600634        0.1841125387
 C          4.3349073134       -0.0931719408       -1.0157994888
 C          5.5207017780       -0.7899580098       -1.6255601444
 C          5.7008016385       -2.2413718976       -1.1600138757
 C          6.1971896856       -2.4067044601        0.2769501692
 H          6.4877422787       -3.4523195910        0.3968467976
 H          7.0926394495       -1.8017044792        0.4226813995
 C          5.1567132635       -2.0578836777        1.3505706879
 H          4.1605159210       -2.0414889856        0.9018579951
 H          5.1477516675       -2.8371385494        2.1160660197
 C          5.4010144804       -0.7268250159        2.0618102096
 H          6.3331417522       -0.7801046278        2.6286298800
 H          4.5846447314       -0.5629787708        2.7698278825
 C          5.4673627465        0.4867453453        1.1255018903
 H          5.4240247925        1.3928584275        1.7346713509
 H          6.4049676838        0.4826065926        0.5700252944
 H          6.4265461556       -2.7101020638       -1.8287265847
 H          4.7509108856       -2.7677761596       -1.2798616155
 H          6.4275798298       -0.2234164510       -1.4120704608
 H          5.3584095197       -0.7927918909       -2.7056154585
 O          3.2600097881       -0.1211313462       -1.8443570449
 C          2.0474866079        0.4519120584       -1.4856944214
 O          1.1607776147        0.3025755478       -2.3519347064
 O          3.0349894557        1.7751832746        1.7338588555
 C          0.6838629014        1.7869267545        0.2078205404
 C         -0.3021195825        0.7867322215        0.7628199097
 C         -0.6745566693        0.8200020525        2.1014100227
 C         -1.5913668787       -0.0883467696        2.6023669390
 C         -2.1560293928       -1.0452013710        1.7789189793
 C         -1.7871901612       -1.0876257718        0.4401279394
 C         -0.8737553693       -0.1724330655       -0.0615380601
 H         -0.5848132841       -0.2168489828       -1.1010602334
 N         -2.3657763269       -2.0509922794       -0.4078964175
 S         -4.0393730537       -2.1306288161       -0.3997570634
 O         -4.4757748772       -2.9255458159        0.7214842514
 O         -4.4124839462       -2.6258032009       -1.7060234695
 C         -4.5703894807       -0.4407785651       -0.1852282649
 C         -4.2382309201        0.4715940663       -1.1671618014
 C         -4.5910283586        1.7996027070       -0.9942609764
 C         -5.2625493558        2.1918553884        0.1536155667
 C         -5.5922628346        1.2630218176        1.1280170018
 C         -5.2416329788       -0.0672060493        0.9608856385
 H         -5.4749683084       -0.8215230851        1.6943718179
 H         -6.1164393192        1.5707672023        2.0183307606
 H         -5.5300159392        3.2280820720        0.2873228630
 H         -4.3365723572        2.5223928459       -1.7528037733
 H         -3.7170616912        0.1344877824       -2.0491927959
 H         -2.0106681941       -2.0123474397       -1.3525730649
 H         -2.8699262969       -1.7631130426        2.1492799279
 H         -1.8691343764       -0.0513182476        3.6445115634
 H         -0.2294547752        1.5571716267        2.7534543350
 H          0.9963997636        2.4390649059        1.0342275752
 C          0.0324106255        2.6452521909       -0.8596729969
 C         -0.9336050386        3.7114357249       -0.4419758860
 C          0.4156264775        4.0888161768       -0.9743091813
 H          0.4815221491        4.5267277460       -1.9590537445
 H          1.1519964353        4.4671356635       -0.2802663347
 H         -1.7986631450        3.8924977820       -1.0604855540
 H         -1.1144107755        3.8349912176        0.6147613365
 H         -0.1697031170        2.1114800381       -1.7788809178
