  62
        -98.94067357
 C          2.2492000374       -1.0832667974       -0.3901509252
 C          2.5352083804       -0.1789844073        0.6621161129
 C          3.4332278506        0.9342914990        0.3202591814
 C          3.8720444996        1.0865889157       -0.9412868136
 C          4.7597508291        2.1911190394       -1.4469676021
 C          6.2572637008        1.9441578316       -1.2178773480
 C          6.7246469000        2.0789847559        0.2318941215
 H          7.8161250574        2.0976202292        0.2158350787
 H          6.3885684964        3.0357057061        0.6329327908
 C          6.2639755710        0.9413767475        1.1538356190
 H          5.9401401283        0.0914123174        0.5487057579
 H          7.1060501170        0.6003994585        1.7602133894
 C          5.1380823954        1.3212930674        2.1156018842
 H          5.4936033089        2.0820489232        2.8140359062
 H          4.8664703562        0.4342309574        2.6935500291
 C          3.8702962944        1.8451012498        1.4281468211
 H          3.0667702097        1.8787201078        2.1682166538
 H          4.0363414042        2.8532157538        1.0486473817
 H          6.5076078471        0.9483655658       -1.5908705874
 H          6.8028159232        2.6723154446       -1.8224318064
 H          4.5824546827        2.2625757301       -2.5222980722
 H          4.4697023461        3.1352595044       -0.9846304684
 O          3.5260981159        0.2308560953       -1.9394889683
 C          2.7360337165       -0.8768491319       -1.6847789227
 O          2.5373807874       -1.5998618398       -2.6815940919
 O          2.0742507089       -0.2701763766        1.8299062915
 C          1.3871383153       -2.3248134935       -0.2145722826
 C         -0.0704684696       -1.9828569476       -0.3858735707
 C         -0.8595801920       -2.6417803006       -1.3204549777
 C         -2.1899925687       -2.2967523089       -1.4855175157
 C         -2.7591353405       -1.2930369149       -0.7223720997
 C         -1.9765494175       -0.6237179146        0.2095806778
 C         -0.6441648009       -0.9715231188        0.3732003806
 H         -0.0377679596       -0.4492187930        1.0990388917
 N         -2.5456518723        0.3976320505        0.9938345057
 S         -3.3138057397        1.6502657096        0.1782595431
 O         -2.7596458113        1.8390036241       -1.1433266179
 O         -3.2497244664        2.7859850965        1.0721396527
 C         -5.0037449405        1.1007084673        0.0618996339
 C         -5.6206822595        1.0228397776       -1.1712608270
 C         -6.9386994753        0.5974909727       -1.2352554109
 C         -7.6124122993        0.2605364681       -0.0712665852
 C         -6.9790924913        0.3469585941        1.1598030450
 C         -5.6622761209        0.7723883708        1.2308958728
 H         -5.1345213882        0.8569180565        2.1661589579
 H         -7.5063390540        0.0841635188        2.0627047875
 H         -8.6372334870       -0.0715177939       -0.1239165843
 H         -7.4325781074        0.5302055106       -2.1913400450
 H         -5.0544207050        1.2893336979       -2.0495929048
 H         -1.9039743406        0.7695318369        1.6804914349
 H         -3.7939287108       -1.0189998476       -0.8479442843
 H         -2.7907125319       -2.8146824018       -2.2174212740
 H         -0.4182907861       -3.4152533787       -1.9319606573
 H          1.6705074072       -2.9872884849       -1.0473818299
 C          1.6854375279       -3.0715953273        1.0796515080
 C          0.7099670329       -3.2154877618        2.2055751343
 C          1.0295133363       -4.3953639249        1.3411991293
 H          1.6245709293       -5.1971365172        1.7512136849
 H          0.2737996778       -4.7175372820        0.6405775578
 H          1.1025834381       -3.1830822657        3.2105563262
 H         -0.2621712612       -2.7596335339        2.1049333371
 H          2.7297112647       -2.9844557979        1.3623192833
