  62
        -98.94790781
 C          0.7891983058        1.1355093566        0.5892971454
 C          1.3041279406        0.7339878524       -0.6666993619
 C          2.2367158765       -0.4016290973       -0.6395364079
 C          2.4733044448       -1.0320083989        0.5246854321
 C          3.4758860144       -2.1326164245        0.7134987935
 C          4.8467645812       -1.5645001284        1.1096460168
 C          5.3268858779       -0.4219761559        0.2143316171
 H          4.6660049102        0.4375670677        0.3480654302
 H          6.3154072117       -0.1241291026        0.5709242390
 C          5.4059831089       -0.7731078963       -1.2780500454
 H          5.4110907682       -1.8562697652       -1.4038223755
 H          6.3506849657       -0.3965978938       -1.6759647293
 C          4.2898025926       -0.1679713327       -2.1315740928
 H          4.2244590950        0.9059617440       -1.9399786562
 H          4.5586925671       -0.2965877793       -3.1833372082
 C          2.8968178175       -0.7799973245       -1.9350674400
 H          2.2476147525       -0.3905454341       -2.7241582491
 H          2.9571306821       -1.8639807639       -2.0389828411
 H          5.5760926474       -2.3763891255        1.0882253100
 H          4.7843896495       -1.1914802512        2.1346824640
 H          3.1256197546       -2.7902210285        1.5100047005
 H          3.5643901314       -2.7029111206       -0.2083096353
 O          1.8617834511       -0.6920353673        1.6892036220
 C          1.0331596833        0.4156987685        1.7580478368
 O          0.5804978909        0.6511784643        2.8977826517
 H         -1.8733419087        0.4583661820        0.8739662344
 C         -2.1181524701        1.1313166792        0.0639355773
 C         -1.2966605738        2.2257100786       -0.1804133448
 C         -1.6379379624        3.1024158668       -1.2010454510
 C         -2.7642990885        2.8707311467       -1.9714665720
 C         -3.5698029518        1.7719409757       -1.7392266384
 C         -3.2458764826        0.8980397039       -0.7057169634
 N         -4.0594762674       -0.2071091714       -0.4349419344
 S         -3.5997032254       -1.4693159512        0.5337483118
 O         -4.5848592493       -2.4950807750        0.2588051483
 O         -3.5125111019       -1.0452542726        1.9093643763
 C         -2.0101553286       -2.0506836982       -0.0309834186
 C         -1.6734454100       -1.9898683682       -1.3679362371
 C         -0.4766339644       -2.5519098511       -1.7823068122
 C          0.3498252701       -3.1762268733       -0.8623384306
 C          0.0016667195       -3.2235881652        0.4779541626
 C         -1.1866629223       -2.6516427575        0.8996130957
 H         -1.4895332786       -2.6545533272        1.9351226784
 H          0.6473561042       -3.7027990776        1.1961453069
 H          1.2693516612       -3.6329842482       -1.1907132641
 H         -0.1952322637       -2.5036223505       -2.8217603753
 H         -2.3333561499       -1.5066182876       -2.0697074603
 H         -4.7541652577       -0.4457021093       -1.1247705689
 H         -4.4445720066        1.5891782636       -2.3438321871
 H         -3.0151260806        3.5538283722       -2.7685758732
 H         -1.0182054841        3.9599781261       -1.4024353953
 C         -0.0743345654        2.3812700803        0.6889666104
 H         -0.4085563985        2.4370516882        1.7353161609
 C          0.7516388222        3.6107334019        0.3717639167
 C          0.3538389374        4.9457594178        0.9231610717
 C          1.5614642021        4.2412653954        1.4627655388
 H          2.5388513135        4.6315555182        1.2212527280
 H          1.5006709808        3.7968042796        2.4459323529
 H          0.5042989256        5.8233198554        0.3128669450
 H         -0.5282165034        4.9860694499        1.5443191157
 H          1.1920564935        3.5751946794       -0.6179548260
 O          1.0212117941        1.3057864821       -1.7505115716
