  62
        -98.94393760
 C         -0.1495053204       -2.2208697107       -0.6194708312
 C         -0.7822589451       -1.1020356533       -1.2174685510
 C         -2.2289061156       -0.9795525093       -0.9735875409
 C         -2.8493174918       -1.8658326820       -0.1765680010
 C         -4.3037334120       -1.8241470481        0.1921868492
 C         -4.5360695352       -1.0348559092        1.4873799093
 C         -3.8629539109        0.3379520036        1.5122113394
 H         -4.1482441428        0.8208856023        2.4501832995
 H         -2.7770431103        0.2141828581        1.5419163293
 C         -4.2337349647        1.2509694122        0.3353334195
 H         -5.1551064633        0.9010216584       -0.1325953904
 H         -4.4257386189        2.2540189513        0.7225824597
 C         -3.1367154253        1.3830892069       -0.7224821305
 H         -3.3744342789        2.2385953760       -1.3603010304
 H         -2.1854313662        1.5911108508       -0.2262918106
 C         -2.9389118704        0.1673266578       -1.6354924807
 H         -2.2982777917        0.4775964906       -2.4661016707
 H         -3.9007985791       -0.1544640161       -2.0403576207
 H         -5.6124681456       -0.9147288937        1.6272993894
 H         -4.1475607427       -1.6193424877        2.3247544492
 H         -4.6489311777       -2.8495141695        0.3378196290
 H         -4.8659561639       -1.3746938703       -0.6242012107
 O         -2.2020045575       -2.9019074994        0.4168536889
 C         -0.8472663167       -3.0978060237        0.2141439287
 O         -0.3803177125       -4.0888271119        0.8144021286
 O         -0.1960041487       -0.2462544608       -1.9282979809
 C          1.3325049809       -2.5261420846       -0.7769395113
 C          2.1258415180       -1.8101378914        0.2854616887
 C          3.0922531408       -2.4655184975        1.0386001185
 C          3.7870529380       -1.7894872547        2.0268287386
 C          3.5194970925       -0.4586735859        2.2931298988
 C          2.5537361597        0.2049829502        1.5438069289
 C          1.8811217624       -0.4673655525        0.5356923389
 H          1.1353189902        0.0509929945       -0.0430384110
 N          2.2628052441        1.5576434690        1.7697213991
 S          0.7143148316        2.1605060626        1.5604643493
 O          0.6227151271        3.2640316721        2.4960504094
 O         -0.2880872341        1.1315467284        1.7162657692
 C          0.6766480487        2.8329567526       -0.0891252206
 C         -0.4153207046        3.6177244181       -0.4058964404
 C         -0.5120029669        4.1584622479       -1.6770545304
 C          0.4844407540        3.9090467621       -2.6077565605
 C          1.5806407673        3.1327567466       -2.2700649406
 C          1.6832754596        2.5891282969       -0.9989268107
 H          2.5279661322        1.9824709804       -0.7181575109
 H          2.3571118980        2.9407519600       -2.9930298407
 H          0.4061801322        4.3230842719       -3.6007319804
 H         -1.3632613495        4.7672697144       -1.9366283502
 H         -1.1643630353        3.7919383649        0.3506484196
 H          2.7173856424        1.9728284207        2.5690688791
 H          4.0477242504        0.0632174662        3.0764884088
 H          4.5350970602       -2.3080448017        2.6071910785
 H          3.2826835051       -3.5137487267        0.8603249584
 H          1.4277658254       -3.6075466742       -0.5877384615
 C          1.8495576297       -2.2630769922       -2.1850055013
 C          2.7771767750       -1.1403222084       -2.5275464713
 C          3.2834413808       -2.5493859563       -2.5213914015
 H          3.5076073928       -3.0267637252       -3.4632120816
 H          3.9339544321       -2.8421723237       -1.7110144916
 H          2.6274446729       -0.6412704489       -3.4722013212
 H          3.0927964423       -0.4833207471       -1.7329280512
 H          1.1124023207       -2.5228688452       -2.9376403513
