  62
        -98.93182167
 C         -0.5748261649       -1.6833717961        0.1726627684
 C         -1.7373777484       -1.4531166358        0.9517450023
 C         -2.8458164443       -0.7604633393        0.2822738502
 C         -2.6776199439       -0.3046261719       -0.9717746624
 C         -3.7243279385        0.3172928254       -1.8621975501
 C         -4.3827570794        1.6281719644       -1.3935506493
 C         -5.6652735243        1.4447116786       -0.5734860877
 H         -6.3943888121        2.1948934649       -0.8862952690
 H         -6.0994840166        0.4715693627       -0.8053791979
 C         -5.4968667802        1.5853062997        0.9419069228
 H         -5.4059554095        2.6441065896        1.1944335029
 H         -6.4069020521        1.2124423223        1.4168554914
 C         -4.2921654057        0.8591950695        1.5404547124
 H         -4.3924290424        0.8688940312        2.6274048238
 H         -3.3744411319        1.4021481644        1.3080000678
 C         -4.1217836956       -0.5917071111        1.0551607216
 H         -4.0530549814       -1.2651914152        1.9119964026
 H         -4.9739446994       -0.8980720792        0.4493579182
 H         -4.6330805398        2.1890908929       -2.2957274172
 H         -3.6639498655        2.2199313707       -0.8311307279
 H         -4.5039941113       -0.4284702864       -2.0399282667
 H         -3.2200366494        0.4943873834       -2.8150835395
 O         -1.4948715363       -0.4320496419       -1.6369140293
 C         -0.4310678239       -1.1548380282       -1.1092504325
 O          0.5515730280       -1.2397403672       -1.8700686430
 O         -1.8548382660       -1.8443349011        2.1427653481
 C          0.4940215035       -2.5666835620        0.7828043368
 C          1.8950113684       -2.0688918082        0.5275529743
 C          2.9268191092       -2.9066270227        0.1209750260
 C          4.2189407982       -2.4290846562       -0.0080291408
 C          4.5088546338       -1.1054542050        0.2591301729
 C          3.4835875660       -0.2522676227        0.6455155267
 C          2.1922166204       -0.7337707985        0.7828239321
 H          1.4025992540       -0.0621976172        1.0914345987
 N          3.7399266143        1.1148478024        0.9145434031
 S          3.2074166687        2.1789856932       -0.2713518636
 O          3.3797203386        1.6254749748       -1.5952342108
 O          3.9285345515        3.4089986637       -0.0107140818
 C          1.4893923958        2.4576923333        0.0762210934
 C          1.1402889371        2.9445885023        1.3209027518
 C         -0.1841428246        3.2691865363        1.5625257647
 C         -1.1253687761        3.1201336030        0.5545525874
 C         -0.7588382215        2.6228980726       -0.6859678768
 C          0.5618098636        2.2807985385       -0.9285653298
 H          0.8867688395        1.8757830636       -1.8740193564
 H         -1.4869390026        2.5000440737       -1.4715525244
 H         -2.1502900003        3.4041883229        0.7389552306
 H         -0.4790918117        3.6467786417        2.5283848193
 H          1.9073197033        3.0659034100        2.0677643595
 H          4.7189841301        1.3025047910        1.0897718519
 H          5.5149455134       -0.7255915454        0.1589313021
 H          5.0071137310       -3.0962443646       -0.3227664413
 H          2.7238093803       -3.9398521922       -0.1055416880
 H          0.3180402491       -2.4916075991        1.8698987127
 C          0.3159067827       -4.0382578526        0.4214080210
 C         -0.9825262141       -4.5753344375       -0.1000346548
 C          0.2070650942       -4.4854995544       -1.0052104236
 H          0.6985484135       -5.4006952548       -1.3013888906
 H          0.2176338624       -3.7180444476       -1.7641661847
 H         -1.3000121194       -5.5502581354        0.2386298467
 H         -1.7964886286       -3.8820097595       -0.2532884449
 H          0.8557452432       -4.6935028493        1.0976805966
