  62
        -98.93353214
 C         -1.4402197510       -1.1790068028        0.8310526402
 C         -2.6432730474       -1.3875798262        0.1129020930
 C         -3.6809517828       -0.3528758878        0.2814527406
 C         -3.4354439288        0.7130594936        1.0629703905
 C         -4.3508385703        1.8894378329        1.2507180433
 C         -4.2769592040        2.8167186666        0.0205828805
 C         -5.5764054996        2.9058350403       -0.7798229876
 H         -6.2853249194        3.5352865490       -0.2377528070
 H         -5.3460961179        3.4060451724       -1.7228818159
 C         -6.2682584384        1.5724215470       -1.0791902102
 H         -6.8261549185        1.2426781826       -0.2013851836
 H         -7.0059427420        1.7653401027       -1.8611104932
 C         -5.3532010536        0.4293377397       -1.5370213622
 H         -5.8743627654       -0.1305881353       -2.3162295143
 H         -4.4406535999        0.8224301615       -1.9854314683
 C         -4.9853581610       -0.5790323516       -0.4323298756
 H         -5.7964926869       -0.6310228995        0.2993136517
 H         -4.8871646491       -1.5701297008       -0.8852010125
 H         -3.4732346478        2.4619240404       -0.6278788156
 H         -4.0032877120        3.8234624449        0.3397275090
 H         -5.3694066406        1.5411390748        1.4072427707
 H         -4.0219922120        2.4175008889        2.1460774665
 O         -2.2620043055        0.8842616514        1.7268962023
 C         -1.2489505842       -0.0537118052        1.6360087800
 O         -0.2372763055        0.2204610213        2.3128873700
 H          2.3682290223       -1.4874868713        0.8906940665
 C          1.9772574257       -1.4302620158       -0.1139061875
 C          0.6491322023       -1.7402563480       -0.3635202438
 C          0.1709330008       -1.6468681950       -1.6679887768
 C          1.0118809647       -1.2596146967       -2.6942780412
 C          2.3341045643       -0.9371986780       -2.4391999209
 C          2.8183354689       -1.0177965116       -1.1395448021
 N          4.1560590359       -0.6971840481       -0.8488861151
 S          4.4915310990        0.3483046905        0.4175252151
 O          5.8714680566        0.7295831303        0.2094958630
 O          4.1919202328       -0.2888631764        1.6729327992
 C          3.4301253683        1.7518596232        0.1285594289
 C          2.1637601373        1.7933130998        0.6748854609
 C          1.3398544134        2.8649140677        0.3650010910
 C          1.7895807911        3.8693243428       -0.4768590901
 C          3.0678302435        3.8148121485       -1.0131915985
 C          3.8942907395        2.7450502469       -0.7136744236
 H          4.8974932167        2.6677793770       -1.1009243068
 H          3.4186350471        4.6000834459       -1.6632580632
 H          1.1417321731        4.6991411833       -0.7120377964
 H          0.3488365782        2.8946238791        0.7912690989
 H          1.8212564352        1.0109740386        1.3339659975
 H          4.7016974612       -0.4432465583       -1.6605437669
 H          2.9874299561       -0.6262302698       -3.2401499325
 H          0.6325008272       -1.1982431157       -3.7030372035
 H         -0.8637680065       -1.8848649202       -1.8633036472
 C         -0.2589844986       -2.1349665654        0.7726850580
 H          0.2962077911       -1.9655057687        1.7094661201
 C         -0.6651117696       -3.6020745589        0.7508503221
 C         -0.3850862741       -4.5266798256       -0.3920596135
 C          0.3920875473       -4.6589558354        0.8806416873
 H          0.2040770887       -5.5060786888        1.5228850878
 H          1.4211197735       -4.3296877213        0.8752335977
 H         -1.1322210465       -5.2700115835       -0.6247450326
 H          0.1234509119       -4.1348296116       -1.2584448760
 H         -1.5903602800       -3.7756938416        1.2899381324
 O         -2.8606764593       -2.3757845673       -0.6330117390
