  62
        -98.93832914
 C          2.2383326222        0.9673574109        0.4150592672
 C          2.4856246844        0.1232271568       -0.6920561207
 C          3.3746790798       -1.0290402169       -0.4525444676
 C          3.8814699703       -1.2309516169        0.7780370769
 C          4.7770913705       -2.3260677587        1.3192593835
 C          5.5423114812       -3.2486954713        0.3738003037
 C          6.6349093461       -2.5632600635       -0.4457866712
 H          7.4378858075       -2.2593182598        0.2304959114
 H          7.0471387290       -3.2958526221       -1.1431072112
 C          6.1969030292       -1.3265278541       -1.2264894993
 H          5.8854090751       -0.5444201332       -0.5309828783
 H          7.0685088187       -0.9470323426       -1.7666427146
 C          5.0826857684       -1.5569780624       -2.2457486813
 H          4.9866147871       -0.6438632133       -2.8390577766
 H          5.3641409677       -2.3667583670       -2.9215034647
 C          3.6971765453       -1.8702669025       -1.6536649049
 H          3.5950709246       -2.9275385742       -1.4208617871
 H          2.9435893752       -1.6257835711       -2.4079935917
 H          6.0252983808       -4.0030621399        1.0009976618
 H          4.8526725807       -3.7767162479       -0.2780534571
 H          5.4887481501       -1.8246936900        1.9830066328
 H          4.1392276222       -2.9423735016        1.9628450015
 O          3.5778514079       -0.4082965858        1.8266260702
 C          2.7654570572        0.7014687535        1.6759203378
 O          2.5853041327        1.3546926397        2.7250255780
 O          1.9851473295        0.3143541100       -1.8301038621
 C          1.3582059659        2.1921538223        0.2529019737
 C         -0.0230788014        1.7962136722       -0.2116458185
 C         -0.7249907877        2.4908597579       -1.1878678959
 C         -1.9997450651        2.0925863831       -1.5523367039
 C         -2.6017400479        1.0010853077       -0.9547292043
 C         -1.9142719260        0.3064242321        0.0320891631
 C         -0.6406101182        0.7113528732        0.3988957040
 H         -0.1084396220        0.1710203347        1.1736403656
 N         -2.5191351029       -0.8090265078        0.6432373184
 S         -4.0143074668       -0.5666122938        1.3735694928
 O         -4.1568608224        0.7928418251        1.8422466688
 O         -4.1208192586       -1.6063391291        2.3741298041
 C         -5.1854088599       -0.8895421882        0.0722831791
 C         -5.1515482626       -2.1261947209       -0.5418403217
 C         -6.0607730324       -2.3959171410       -1.5521626564
 C         -6.9842636988       -1.4312165786       -1.9270982354
 C         -7.0068976360       -0.1955119660       -1.2986545416
 C         -6.0996874603        0.0811385402       -0.2875703430
 H         -6.0753384692        1.0288423437        0.2261873007
 H         -7.7251337946        0.5531632488       -1.5920123696
 H         -7.6902559411       -1.6441172498       -2.7142213337
 H         -6.0460018372       -3.3554707324       -2.0434958480
 H         -4.4205501181       -2.8482194686       -0.2180175713
 H         -1.9034998599       -1.3015568943        1.2745476703
 H         -3.5903839786        0.6828178553       -1.2423411764
 H         -2.5303139937        2.6385298597       -2.3173023915
 H         -0.2726361637        3.3438421054       -1.6662993485
 H          1.2605692234        2.6308107651        1.2577022498
 C          2.0353660718        3.1989751693       -0.6544835900
 C          1.8138268047        4.6675349394       -0.4572109013
 C          3.1302602477        4.0524043851       -0.0911477641
 H          3.9905630225        4.2632256007       -0.7084545798
 H          3.3654418597        3.9273226234        0.9562986441
 H          1.7736095207        5.3050087869       -1.3275466471
 H          1.1577788743        4.9717110109        0.3445257369
 H          2.1598460072        2.8279298769       -1.6651792799
