  62
        -98.94487043
 C         -2.6461403096       -0.3244165194       -0.0095461491
 C         -2.4368456800       -1.4334601493       -0.8621167694
 C         -1.7562057301       -2.5839776595       -0.2606178499
 C         -1.3818002697       -2.5357186399        1.0311263700
 C         -0.6332666897       -3.6086893002        1.7734944296
 C          0.8854642302       -3.5404345804        1.5556453292
 C          1.3674109398       -4.0448693202        0.1939456689
 H          2.4479042898       -4.1840085004        0.2689021186
 H          0.9262050096       -5.0213638300       -0.0103523212
 C          1.0728633697       -3.0869673998       -0.9692863608
 H          0.8631855599       -2.0923485699       -0.5663284505
 H          1.9600790795       -2.9993330698       -1.6022030210
 C         -0.0795619007       -3.5209485094       -1.8759685106
 H          0.1904194391       -4.4454104093       -2.3918167109
 H         -0.2319126107       -2.7459878192       -2.6319845803
 C         -1.4134247105       -3.7409784393       -1.1511689403
 H         -2.2010825607       -3.8236144490       -1.9045037901
 H         -1.3812604605       -4.6653236095       -0.5752770505
 H          1.2060116005       -2.5039206105        1.6928873394
 H          1.3563775304       -4.1450094207        2.3345404489
 H         -0.8377562094       -3.4541003805        2.8349938596
 H         -1.0053562599       -4.5924202201        1.4851567494
 O         -1.6542301893       -1.4742245201        1.8342841504
 C         -2.2366234493       -0.3253653198        1.3251534508
 O         -2.3558212989        0.6009551500        2.1509310411
 O         -2.7809871504       -1.4500197489       -2.0761800893
 C         -3.1770059096        0.9699642208       -0.6040988986
 C         -2.0784195294        1.9989427806       -0.4827149186
 C         -2.2481350190        3.2711806105        0.0455602117
 C         -1.1576194688        4.1047839603        0.2354216417
 C          0.1221374110        3.6867501501       -0.0824839588
 C          0.2944418307        2.4294768002       -0.6420438891
 C         -0.7980981295        1.6106304805       -0.8588266291
 H         -0.6465221898        0.6233579606       -1.2794945294
 N          1.6127116205        1.9496670901       -0.9023167496
 S          2.1792283808        1.1644470796        0.4950197700
 O          1.4246350106       -0.0473821903        0.7317677799
 O          2.1999950512        2.1322586393        1.5619832603
 C          3.8479836206        0.7580496495        0.0149042695
 C          4.7567215007        1.7901206893       -0.1200593905
 C          6.0495770206        1.4946548192       -0.5209306709
 C          6.4096025303        0.1799646092       -0.7789971213
 C          5.4862414401       -0.8445588206       -0.6383013614
 C          4.1903609503       -0.5554777105       -0.2390699909
 H          3.4395217102       -1.3192776104       -0.1128953109
 H          5.7683388499       -1.8658905206       -0.8374154817
 H          7.4168353601       -0.0478760309       -1.0902395017
 H          6.7710234507        2.2881207191       -0.6306442409
 H          4.4319283909        2.7936107293        0.0983446799
 H          1.5942099202        1.2498100103       -1.6358345198
 H          0.9837918312        4.3035179099        0.1126850612
 H         -1.3059693685        5.0846412002        0.6633547520
 H         -3.2322431989        3.6016325006        0.3360764021
 H         -3.3481131699        0.7578516511       -1.6700572786
 C         -4.4839949993        1.3892061509        0.0299789618
 C         -5.4520694894        2.2387459712       -0.7369970477
 C         -5.7609695696        0.7951488812       -0.4816339080
 H         -6.5347650894        0.5487936412        0.2296236622
 H         -5.6887049399        0.1009732814       -1.3061126882
 H         -6.0187742991        2.9851683112       -0.2014193373
 H         -5.1767872096        2.5278706714       -1.7399015277
 H         -4.3955070690        1.5450568306        1.0991383219
