  62
        -98.94111244
 C          2.0886603494        0.7753966930       -0.4404780708
 C          3.2214248146        1.2865036933        0.2456881114
 C          4.4820660112        0.5639894600        0.0476831398
 C          4.5080758529       -0.5251921328       -0.7409339441
 C          5.7187245250       -1.3598838321       -1.0594463915
 C          6.0394536784       -2.4227253901        0.0003417183
 C          6.6160422645       -1.8828793565        1.3098522402
 H          6.9952534550       -2.7400752631        1.8698019003
 H          7.4659241306       -1.2353714746        1.0915872252
 C          5.6039184703       -1.1304905384        2.1851579117
 H          4.5896338544       -1.3734771807        1.8596087636
 H          5.6962470835       -1.4678749502        3.2200079175
 C          5.7733944577        0.3888420620        2.1873789240
 H          4.9843089217        0.8207802398        2.8080305246
 H          6.7347869000        0.6495920069        2.6354207369
 C          5.6904649422        1.0358102413        0.7986546298
 H          6.5968584243        0.8259851089        0.2310208070
 H          5.6007693553        2.1170348793        0.9294099908
 H          5.1310185717       -2.9927773031        0.2090593493
 H          6.7684653995       -3.1088656001       -0.4370467232
 H          6.5843380235       -0.7118670742       -1.2005438898
 H          5.5067715962       -1.8679378471       -2.0027992504
 O          3.4002956446       -0.9939648712       -1.3709754948
 C          2.1613712051       -0.3771336322       -1.2250750648
 O          1.2461457980       -0.9510680475       -1.8431321498
 O          3.1794602560        2.3019638701        0.9894476297
 C          0.7678999830        1.4955652620       -0.2286815809
 C         -0.3021919211        0.5062356498        0.1537835446
 C         -0.2807275811       -0.0510816494        1.4291121747
 C         -1.2249862507       -0.9859046578        1.8091909265
 C         -2.2115098862       -1.3850578680        0.9249691981
 C         -2.2418803129       -0.8341821733       -0.3492245497
 C         -1.3003069828        0.1155120223       -0.7244876103
 H         -1.3214626098        0.5186513453       -1.7247839261
 N         -3.2395637688       -1.2367038425       -1.2503683756
 S         -4.8086258255       -1.3752486188       -0.6972058700
 O         -4.9796740161       -2.6303623530       -0.0081219982
 O         -5.6415840037       -1.1780236218       -1.8629221812
 C         -5.0117612590       -0.0249699604        0.4521214038
 C         -5.2914964850       -0.2825106523        1.7784004173
 C         -5.4089325316        0.7819642482        2.6580609375
 C         -5.2414392288        2.0787599296        2.1987056281
 C         -4.9643095686        2.3218288160        0.8618678881
 C         -4.8473750467        1.2617245090       -0.0218681001
 H         -4.6390087681        1.4166296042       -1.0682935449
 H         -4.8360713342        3.3318887335        0.5070594625
 H         -5.3279811514        2.9061034135        2.8852402849
 H         -5.6264144971        0.5960263749        3.6974945584
 H         -5.4114456152       -1.3061449855        2.0938814247
 H         -3.1889002153       -0.7924728820       -2.1543698528
 H         -2.9437300329       -2.1285096915        1.1953480838
 H         -1.1917835509       -1.4127511570        2.8000976133
 H          0.4966134953        0.2514134209        2.1174128089
 H          0.9551035112        2.1459679961        0.6413557570
 C          0.3555641023        2.4149947387       -1.3683612575
 C          1.3866794985        3.1737142825       -2.1476793537
 C          0.5923665207        2.0912535556       -2.8120123775
 H         -0.1622087182        2.3799457487       -3.5298893193
 H          1.0829372758        1.1603473086       -3.0488395871
 H          1.1829095764        4.2004450981       -2.4117514416
 H          2.4247470715        2.9779302863       -1.9213643349
 H         -0.5615910694        2.9488085618       -1.1374090722
