  62
        -98.94667417
 C          1.1751141401        1.3665770610        0.2806657031
 C          1.3648581187        0.3237741138       -0.6584276033
 C          2.3485016491       -0.7008231410       -0.2835333761
 C          2.9407803935       -0.6598069309        0.9226647630
 C          3.9506867136       -1.6416072807        1.4514311814
 C          5.3909134384       -1.3448313568        1.0109523641
 C          5.6958119979       -1.6497178553       -0.4563853461
 H          6.7805480371       -1.6067978261       -0.5732134834
 H          5.3847662208       -2.6690238977       -0.6872346660
 C          5.0542300294       -0.6747628389       -1.4537654199
 H          5.7954066258       -0.3774913456       -2.1992036749
 H          4.7473885892        0.2334282270       -0.9298448141
 C          3.8522114292       -1.2396786256       -2.2113452774
 H          3.4580683794       -0.4535712173       -2.8603882574
 H          4.1760630655       -2.0678764594       -2.8456046675
 C          2.7105138217       -1.7302775420       -1.3108202147
 H          1.8296702367       -1.9017755571       -1.9337175037
 H          2.9899232918       -2.6673927772       -0.8311506971
 H          5.6119249508       -0.2953708291        1.2189574685
 H          6.0539761247       -1.9524375432        1.6311717654
 H          3.6829552667       -2.6531888603        1.1451974856
 H          3.9047092616       -1.5810382173        2.5408919854
 O          2.6615364074        0.3061934150        1.8364228122
 C          1.8134972573        1.3534164143        1.5260497494
 O          1.7025090162        2.2032416709        2.4321553223
 O          0.7665732909        0.2306699455       -1.7634828163
 C          0.2806058806        2.5717605374        0.0257657350
 C         -1.1694446457        2.2205631375        0.2504248897
 C         -1.8806689333        2.7646277517        1.3133618958
 C         -3.2013611730        2.4122494934        1.5348182818
 C         -3.8368540022        1.5043758826        0.7059021447
 C         -3.1289754636        0.9493168038       -0.3516891334
 C         -1.8117294799        1.3145856957       -0.5818545535
 H         -1.2631388594        0.8641412349       -1.3957952733
 N         -3.7515538794       -0.0257432843       -1.1684544355
 S         -3.9702251616       -1.5064433490       -0.4165326545
 O         -4.4133908397       -2.4159379153       -1.4479403456
 O         -4.8613532055       -1.3244524345        0.7007411817
 C         -2.3550909826       -1.9901176618        0.1700045339
 C         -1.6176783149       -2.8946835396       -0.5664905213
 C         -0.3548035037       -3.2500790109       -0.1227010334
 C          0.1542908202       -2.6813914262        1.0340027775
 C         -0.5903271473       -1.7593411077        1.7522755195
 C         -1.8603498094       -1.4116481796        1.3222589903
 H         -2.4704506959       -0.7104719855        1.8683940423
 H         -0.1833024679       -1.3047449213        2.6423728350
 H          1.1367728546       -2.9561964827        1.3827247995
 H          0.2296847461       -3.9643032687       -0.6798754976
 H         -2.0513938128       -3.3119104065       -1.4612417396
 H         -3.2493434229       -0.1787536819       -2.0332162533
 H         -4.8549459570        1.1958348017        0.8787689743
 H         -3.7400918513        2.8447340514        2.3643229463
 H         -1.3849026328        3.4557859995        1.9796306210
 H          0.5650366649        3.3152626639        0.7820379320
 C          0.4957855300        3.1795987025       -1.3470325216
 C          0.0867141181        4.6008477373       -1.5839487925
 C          1.5399159298        4.2386803162       -1.5235460325
 H          2.1146758859        4.2487495274       -2.4375433349
 H          2.1039457838        4.5360157350       -0.6511478788
 H         -0.3392418025        4.8619872897       -2.5405098688
 H         -0.3341991231        5.1456794021       -0.7524044247
 H          0.3636699054        2.4757225455       -2.1578088763
