  62
        -98.93601124
 C          1.7247631202        0.3071825005        0.1595400495
 C          2.8685708302        0.8758087109        0.7634138891
 C          4.1786270902        0.4301845108        0.2539238492
 C          4.2172370102       -0.4980920997       -0.7189438204
 C          5.4193034002       -1.1045368898       -1.3983406402
 C          6.5959481804       -1.5044884092       -0.4947208001
 C          7.8233389002       -0.6066092792       -0.6606206107
 H          8.7095353903       -1.1662474089       -0.3530578005
 H          7.9395946301       -0.3701391397       -1.7203641008
 C          7.7937529302        0.6905118812        0.1460000087
 H          7.9333171103        0.4609004118        1.2045915988
 H          8.6468770001        1.2953868912       -0.1702023517
 C          6.5195463701        1.5241785510       -0.0025016216
 H          6.1873335599        1.5327890604       -1.0399944716
 H          6.7626961900        2.5553175812        0.2625433778
 C          5.3739812102        1.0644043013        0.9116398787
 H          4.9665312101        1.9248681715        1.4514078583
 H          5.7580753804        0.3848483717        1.6778380590
 H          6.8862139505       -2.5226858993       -0.7590613496
 H          6.2756131105       -1.5212795088        0.5457790800
 H          5.0345487103       -1.9849332302       -1.9182726497
 H          5.7642757001       -0.4138587702       -2.1719728306
 O          3.0845672702       -1.0261046001       -1.2676927200
 C          1.8191502102       -0.6405889400       -0.8578186500
 O          0.8876567002       -1.2065873104       -1.4608476797
 O          2.8012166802        1.7236884114        1.6943915887
 C          0.3501813302        0.7471133206        0.6284848694
 C         -0.4680821596       -0.4442004393        1.0578341701
 C          0.0974262706       -1.3656872688        1.9359779805
 C         -0.6115181092       -2.4769790587        2.3465657411
 C         -1.9014576292       -2.6918581091        1.8941448014
 C         -2.4828653994       -1.7701803296        1.0318772110
 C         -1.7705044096       -0.6480046897        0.6289996903
 H         -2.2346428098        0.0464708399       -0.0504855200
 N         -3.8059569895       -1.9414706700        0.6109154812
 S         -4.4198216697       -1.2782718307       -0.7899429991
 O         -5.6798135696       -1.9683709010       -0.9756364086
 O         -3.4960835398       -1.3484281712       -1.8970288592
 C         -4.7545255698        0.4193226394       -0.3675082399
 C         -5.2283943798        0.7198081700        0.8942086200
 C         -5.5246897399        2.0381783901        1.2011673493
 C         -5.3530554401        3.0278212997        0.2454255688
 C         -4.8830906102        2.7091675591       -1.0191486511
 C         -4.5792239501        1.3928279390       -1.3306522404
 H         -4.1976903001        1.1022741485       -2.2970707003
 H         -4.7513083504        3.4792786387       -1.7628190215
 H         -5.5846827202        4.0532638698        0.4862370283
 H         -5.8891756198        2.2897695706        2.1840646592
 H         -5.3508744896       -0.0729786196        1.6128220804
 H         -4.2289847693       -2.8277520799        0.8406305217
 H         -2.4535107791       -3.5658789790        2.2042316819
 H         -0.1556747291       -3.1875497483        3.0196905514
 H          1.1090568906       -1.2028416185        2.2823475303
 H          0.5331878002        1.3756457510        1.5130250591
 C         -0.3198368500        1.5929219199       -0.4339138410
 C         -1.2800552001        2.6736684800       -0.0384757814
 C          0.0765112098        3.0321597799       -0.5640708617
 H          0.1536051497        3.4575766594       -1.5533873920
 H          0.8155230998        3.4043755104        0.1302349080
 H         -2.1395837002        2.8543010596       -0.6657406214
 H         -1.4678015300        2.8113061005        1.0154296485
 H         -0.5126121400        1.0401268894       -1.3477964907
