  62
        -98.94791333
 C         -0.9728417200       -1.0032512685        0.7113072955
 C         -1.5753734426       -0.8862208333       -0.5643150530
 C         -2.2737223233        0.3785800664       -0.8234570381
 C         -2.2543998485        1.3557748957        0.1000879644
 C         -2.8833165712        2.7164618957       -0.0363728858
 C         -4.3790474078        2.7527139932        0.3065470934
 C         -5.3006658511        2.1020562099       -0.7255642854
 H         -6.3220285331        2.3909504060       -0.4698517565
 H         -5.0840061442        2.5109922162       -1.7130010063
 C         -5.2183070484        0.5699624633       -0.7719356012
 H         -4.7412450924        0.2027101061        0.1394447869
 H         -6.2269515749        0.1516668042       -0.7976542747
 C         -4.4663753103        0.0121508358       -1.9805721061
 H         -5.0067056222        0.2612406402       -2.8966055020
 H         -4.4352208316       -1.0768559138       -1.8933977840
 C         -3.0232910035        0.5166433576       -2.1131978344
 H         -2.5075285050       -0.0932881579       -2.8594507820
 H         -3.0134582974        1.5533947850       -2.4506323830
 H         -4.6644766128        3.8025770555        0.4052302168
 H         -4.5253237098        2.2746238662        1.2777023115
 H         -2.7290070910        3.0885673958       -1.0501518075
 H         -2.3562901262        3.3753722548        0.6574595824
 O         -1.6188701116        1.2232515338        1.2952709786
 C         -0.9691351845        0.0448309386        1.6300164501
 O         -0.4288653122        0.0581791857        2.7546470483
 O         -1.5371778197       -1.7895339225       -1.4402951600
 C         -0.2015201583       -2.2603517003        1.0729074023
 C          0.9488710317       -2.4218589760        0.1080491476
 C          1.2906836070       -3.6231697593       -0.4981279553
 C          2.3421465206       -3.6752883544       -1.3976298435
 C          3.0600783794       -2.5383700185       -1.7203841602
 C          2.7337582771       -1.3336605051       -1.1073568277
 C          1.7036457689       -1.2928673797       -0.1840594237
 H          1.4549041264       -0.3559763630        0.2929853134
 N          3.4405845876       -0.1543337556       -1.3876433504
 S          2.6243271018        1.3070066353       -1.4127481974
 O          1.2792484973        1.1726387771       -1.9222083942
 O          3.4973832055        2.1862389031       -2.1643760310
 C          2.5990423980        1.8403622410        0.2844624957
 C          1.4546730722        2.4314284771        0.7804992629
 C          1.4366609498        2.8628544168        2.0966740564
 C          2.5626331565        2.7010465727        2.8881878426
 C          3.7082568301        2.1140577091        2.3725704470
 C          3.7317671015        1.6794065936        1.0572467775
 H          4.6009459005        1.2134102008        0.6239216294
 H          4.5804681129        1.9893435072        2.9939730440
 H          2.5421489011        3.0305195784        3.9149600973
 H          0.5401634831        3.3054949534        2.5002006252
 H          0.5945433568        2.5207144643        0.1342248540
 H          4.1163808043       -0.2241602229       -2.1346248760
 H          3.8620266929       -2.5775499475       -2.4416957383
 H          2.5950287678       -4.6132430282       -1.8684093094
 H          0.7276361154       -4.5151507903       -0.2775112129
 H          0.2155267927       -2.0842192641        2.0755300029
 C         -1.1225178217       -3.4605395986        1.1280623191
 C         -0.8119241745       -4.6091644523        2.0388961987
 C         -1.9457254762       -3.6836950404        2.3599017534
 H         -2.9570276349       -4.0441572833        2.2459468310
 H         -1.8213329836       -2.9820547412        3.1720674376
 H         -1.0476681149       -5.6090351464        1.7069756077
 H          0.0810164821       -4.5420234884        2.6416637532
 H         -1.5854296115       -3.6730914548        0.1713564491
