  62
        -98.94418151
 C         -1.6313655444       -1.4417963375        0.3744827155
 C         -1.7755392114       -0.2372887187        1.1132139310
 C         -3.0400159886        0.4898695134        0.9445630601
 C         -3.9970583981       -0.0360440237        0.1593077794
 C         -5.3296254839        0.5972011338       -0.1163739199
 C         -5.2836030684        1.4783608581       -1.3721801627
 C         -4.1085722195        2.4555856069       -1.3964124470
 H         -4.1985614926        3.0490705220       -2.3087207578
 H         -3.1771549763        1.8895236995       -1.4714016498
 C         -4.0361918184        3.3914797522       -0.1818001867
 H         -5.0014525819        3.4175511942        0.3250092689
 H         -3.8281944301        4.4042239395       -0.5330993249
 C         -2.9407700780        3.0347025534        0.8248296848
 H         -2.8173854493        3.8802946718        1.5068304938
 H         -1.9963966605        2.8945391614        0.2936975391
 C         -3.2010708761        1.7892344602        1.6824300699
 H         -4.1918620211        1.8547688804        2.1369340518
 H         -2.4586394429        1.7709315403        2.4859120108
 H         -6.2223291799        2.0314296966       -1.4396314838
 H         -5.2080897831        0.8296227653       -2.2478793519
 H         -6.0613119301       -0.1982357735       -0.2683971053
 H         -5.6280874424        1.1901774989        0.7461187466
 O         -3.8375377028       -1.2033399101       -0.5100975257
 C         -2.6496195245       -1.9202557313       -0.4510371150
 O         -2.6559234725       -2.9394358363       -1.1689959762
 H          2.1765738455       -1.1682220602        0.8042424935
 C          1.9104775654       -1.3226995805       -0.2296510556
 C          0.6648925111       -1.8380160616       -0.5570218364
 C          0.3564493661       -2.0469352909       -1.8972292107
 C          1.2780615480       -1.7392987123       -2.8810589029
 C          2.5155577456       -1.2140811167       -2.5519878985
 C          2.8361975818       -1.0068915512       -1.2153866553
 N          4.0940675430       -0.5053332786       -0.8556142071
 S          4.2923526600        0.5196033408        0.4488642773
 O          5.6054962057        1.0918665554        0.2465405083
 O          4.1005988801       -0.2037388946        1.6800895955
 C          3.0502967629        1.7827927910        0.2543153025
 C          1.9391553259        1.8012256315        1.0701233416
 C          0.9800969753        2.7821977065        0.8748226281
 C          1.1442691344        3.7204090621       -0.1311255434
 C          2.2705129876        3.6923016880       -0.9411490562
 C          3.2328296843        2.7154942061       -0.7493858271
 H          4.1284810253        2.6713444249       -1.3476396188
 H          2.3982407204        4.4274407068       -1.7194823296
 H          0.3924968740        4.4795989331       -0.2819366244
 H          0.1069689876        2.7847370503        1.5072223079
 H          1.8203522773        1.0585100027        1.8416957304
 H          4.6839813461       -0.2416774566       -1.6307075001
 H          3.2323776749       -0.9743400809       -3.3223888457
 H          1.0285795210       -1.9069210549       -3.9179683410
 H         -0.6089399490       -2.4532438350       -2.1573825102
 C         -0.3142999262       -2.1795761974        0.5413831793
 H          0.1077431894       -1.8046202268        1.4842493974
 C         -0.4617104594       -3.6846886184        0.6557622232
 C          0.6328673196       -4.4702015883        1.3108462408
 C         -0.6864189719       -4.3011079957        2.0020373956
 H         -1.3463253082       -5.1525211973        2.0745301089
 H         -0.7336920762       -3.6390689170        2.8546690770
 H          1.4816804733       -3.9237539486        1.6949829491
 H          0.8819147302       -5.4401051583        0.9085011291
 H         -0.9689294853       -4.1337252200       -0.1879524940
 O         -0.8864796043        0.2046416409        1.8885788806
