  62
        -98.94230327
 C         -1.1801578477       -1.2282485191       -0.0146847885
 C         -1.6205461085       -0.2273269542        0.8797373565
 C         -2.6570767226        0.6942531689        0.3861919659
 C         -3.0995455144        0.5712220723       -0.8790348411
 C         -4.0895063910        1.4002530493       -1.6706485898
 C         -5.0422928343        2.3640762540       -0.9678392123
 C         -6.0890396870        1.6959044386       -0.0775100440
 H         -6.6526312397        2.4806459373        0.4318509814
 H         -6.7858069831        1.1445088585       -0.7137372966
 C         -5.5421823801        0.7215196716        0.9625474645
 H         -6.3894888370        0.3320032140        1.5332175750
 H         -5.0752896023       -0.1275649757        0.4592521212
 C         -4.5470905234        1.3177135457        1.9563694567
 H         -4.3758636980        0.5711049522        2.7362850553
 H         -4.9827453352        2.2003669935        2.4283189408
 C         -3.1741499990        1.6998604387        1.3741383885
 H         -3.1895190838        2.6943185923        0.9330803951
 H         -2.4522565024        1.7212327621        2.1960881107
 H         -4.4805276077        3.1045439053       -0.4058052107
 H         -5.5742950666        2.9035003988       -1.7564004712
 H         -3.4870391470        1.9705737684       -2.3872333395
 H         -4.6731078871        0.6846915717       -2.2588290400
 O         -2.6187697731       -0.3911705296       -1.7200093891
 C         -1.6547134334       -1.3035525790       -1.3223911274
 O         -1.3167207296       -2.1114674222       -2.2084958726
 H          0.8242150783        0.0832688089       -0.6122290114
 C          1.4939848086       -0.7390129151       -0.8085922616
 C          1.1579082843       -2.0146596132       -0.3786009550
 C          2.0225419035       -3.0609497211       -0.6781020217
 C          3.1804788750       -2.8265627347       -1.3992910768
 C          3.5142222820       -1.5510099472       -1.8175989801
 C          2.6579152254       -0.4972011882       -1.5197390404
 N          2.9472630638        0.8131494789       -1.9265414612
 S          2.4953398291        2.1075443139       -0.9715834530
 O          1.0725935651        2.3277559000       -1.0544128394
 O          3.3282221534        3.1958362856       -1.4386327888
 C          2.9826858640        1.6495327182        0.6821613734
 C          4.3379546384        1.5978058504        0.9492500049
 C          4.7617354396        1.2038477557        2.2071511278
 C          3.8271817233        0.8620276813        3.1735587640
 C          2.4718979564        0.9235906632        2.8921025396
 C          2.0416224906        1.3223379573        1.6358910400
 H          0.9905730703        1.3728533599        1.3982189320
 H          1.7354007381        0.6575952801        3.6337239067
 H          4.1554264750        0.5487314208        4.1520537817
 H          5.8156410860        1.1609916166        2.4298064239
 H          5.0321812520        1.8823393374        0.1753670016
 H          3.8560772899        0.9442582430       -2.3447647820
 H          4.4186291378       -1.3712428119       -2.3780007780
 H          3.8379264245       -3.6497788667       -1.6338508372
 H          1.7849984399       -4.0609279068       -0.3539850281
 C         -0.1027133255       -2.1958429470        0.4331454838
 H          0.1282081980       -1.9133899934        1.4723082016
 C         -0.6210584258       -3.6196804094        0.4201195351
 C         -0.1505953885       -4.6112938508        1.4409439708
 C         -1.5425799986       -4.0625467398        1.5159803837
 H         -2.3704955549       -4.7082117462        1.2644000637
 H         -1.7697287374       -3.3450147379        2.2910414463
 H         -0.0239036550       -5.6400690190        1.1389632421
 H          0.5642008334       -4.2734384701        2.1759497825
 H         -0.8307018069       -3.9740581238       -0.5827878057
 O         -1.1556396024       -0.0972625667        2.0453315586
