  62
        -98.94008798
 C         -2.6023605889       -1.1595529738        0.2866742977
 C         -2.5819952298       -0.3287133314       -0.8611539291
 C         -3.4824414866        0.8354221322       -0.8247419636
 C         -4.2422427410        1.0545047449        0.2627995030
 C         -5.1600569430        2.2271975191        0.4490996164
 C         -4.4377956730        3.3944654757        1.1365590385
 C         -3.0878783758        3.7420954726        0.5085897058
 H         -2.6852182317        4.5969728820        1.0564429826
 H         -2.3974289917        2.9091120224        0.6623102267
 C         -3.1510681234        4.0767553986       -0.9883176630
 H         -4.1765447527        4.3183332381       -1.2700344502
 H         -2.5458520894        4.9666623403       -1.1730913202
 C         -2.6185320561        2.9764310850       -1.9083280340
 H         -1.6267620876        2.6632849312       -1.5716434047
 H         -2.5054865652        3.3974657588       -2.9107504067
 C         -3.5000973047        1.7275097137       -2.0340753152
 H         -4.5220492213        2.0210735350       -2.2821601969
 H         -3.1044395627        1.1249021184       -2.8568067157
 H         -5.0902029250        4.2690095517        1.1079823061
 H         -4.2704948289        3.1298904059        2.1834282169
 H         -5.5402241355        2.5417365895       -0.5208183153
 H         -5.9979508459        1.9122771466        1.0734229164
 O         -4.2180093059        0.2477021400        1.3553362724
 C         -3.3866390456       -0.8596917738        1.4027695238
 O         -3.4289266034       -1.4841127158        2.4825155571
 H         -0.1890013902       -0.4353417038        1.3494683814
 C          0.3355781866       -0.9799827648        0.5720505773
 C         -0.3083788894       -2.0384774412       -0.0587104159
 C          0.3759511556       -2.7323509564       -1.0468927680
 C          1.6629813859       -2.3628054431       -1.3979477347
 C          2.2927284948       -1.2998525548       -0.7783938460
 C          1.6193067823       -0.6001932313        0.2147399572
 N          2.2463050535        0.4942850010        0.8391657683
 S          3.7691303319        0.2481464261        1.5047827181
 O          3.9413861078       -1.1206022775        1.9345667493
 O          3.9033334322        1.2637205817        2.5266750657
 C          4.8896678599        0.6156282221        0.1712810797
 C          4.8015417969        1.8549997959       -0.4317663257
 C          5.6728610460        2.1589729089       -1.4655051763
 C          6.6140321191        1.2254742598       -1.8737561100
 C          6.6922895906       -0.0128965328       -1.2551730398
 C          5.8228510049       -0.3238697446       -0.2211733191
 H          5.8421929932       -1.2754099334        0.2857496301
 H          7.4248733537       -0.7368970144       -1.5737379520
 H          7.2904776959        1.4649513626       -2.6789822727
 H          5.6148381317        3.1208307317       -1.9490593894
 H          4.0583489393        2.5525110680       -0.0828778462
 H          1.6520591255        0.9795417985        1.4957595438
 H          3.2910969078       -1.0044956615       -1.0568090019
 H          2.1805449390       -2.9071078822       -2.1730679439
 H         -0.1046951305       -3.5494558608       -1.5587313818
 C         -1.7062702849       -2.3811326092        0.3979598955
 H         -1.6558841781       -2.5974474392        1.4788733834
 C         -2.2695781636       -3.6307706985       -0.2626789793
 C         -3.7473415215       -3.8157575403       -0.4331323158
 C         -2.8746709290       -3.6106085791       -1.6328985649
 H         -2.6955935334       -4.4540123807       -2.2836794394
 H         -2.9150948395       -2.6630848478       -2.1455888740
 H         -4.1633948394       -4.7964977893       -0.2573189400
 H         -4.3931179254       -3.0069647918       -0.1225474683
 H         -1.7067629490       -4.5184507483        0.0097770173
 O         -1.8572248097       -0.5345148836       -1.8672390693
