  62
        -98.93498919
 C         -2.4802150725       -1.4795908250        0.2331443179
 C         -2.7598073241       -0.6033004332       -0.8414858750
 C         -3.7218288069        0.4845393856       -0.5724728861
 C         -4.2466706775        0.6250074168        0.6581098146
 C         -5.2599598983        1.6079526965        1.2062934771
 C         -5.6064955677        2.8830696477        0.4419195673
 C         -4.4668297693        3.8956824590        0.3345612808
 H         -4.2717834390        4.3080178551        1.3277238279
 H         -4.7977987111        4.7154112410       -0.3068129260
 C         -3.1460899935        3.3492646076       -0.2026824337
 H         -2.7451912143        2.6054708226        0.4900094911
 H         -2.4279989963        4.1738950321       -0.2312528977
 C         -3.2111221048        2.7415732483       -1.6027673742
 H         -2.1829471758        2.5489807542       -1.9225785593
 H         -3.6455929318        3.4639560146       -2.2965533988
 C         -3.9901981395        1.4192830583       -1.7170118950
 H         -3.6499564511        0.9056360686       -2.6209151822
 H         -5.0573857483        1.5973303752       -1.8238281050
 H         -6.4211253265        3.3622303137        0.9915998559
 H         -5.9923420139        2.6398395067       -0.5436423264
 H         -4.8998674623        1.8762756437        2.2045791183
 H         -6.1809064510        1.0333996913        1.3553517508
 O         -3.9281115147       -0.2316232966        1.6723066393
 C         -3.0534022177       -1.2856725770        1.4921090590
 O         -2.8711354403       -1.9771466098        2.5138977089
 O         -2.2474175938       -0.7032454065       -1.9871904272
 C         -1.5346080627       -2.6665055721        0.1252835759
 C         -0.1111542283       -2.2291967845        0.3572737454
 C          0.6711144787       -2.8174390609        1.3434515021
 C          1.9679857731       -2.3857045779        1.5628499984
 C          2.5100798681       -1.3637749644        0.8041692046
 C          1.7335698830       -0.7644824778       -0.1791527875
 C          0.4350211683       -1.1995402253       -0.3974349235
 H         -0.1662056510       -0.7322298790       -1.1637818756
 N          2.2749020210        0.2731049948       -0.9608995762
 S          2.9521735693        1.5774698318       -0.1471334529
 O          2.3465855332        1.7630588934        1.1520537623
 O          2.8606813546        2.6914689774       -1.0655093936
 C          4.6621282834        1.1139834810        0.0328058225
 C          5.2488713498        1.1105396151        1.2830028843
 C          6.5828123074        0.7500224522        1.3960660201
 C          7.3021917004        0.4021779019        0.2630468865
 C          6.6986783911        0.4134086179       -0.9858166507
 C          5.3661309944        0.7738118694       -1.1059099268
 H          4.8602790194        0.7979055693       -2.0566411481
 H          7.2611876858        0.1420092715       -1.8645647118
 H          8.3392965154        0.1203720454        0.3539468817
 H          7.0534547165        0.7410116484        2.3660578202
 H          4.6478082110        1.3818095750        2.1363860423
 H          1.6420595148        0.5963766873       -1.6794047829
 H          3.5182401970       -1.0218432971        0.9724434175
 H          2.5636024187       -2.8495139321        2.3341900847
 H          0.2494963547       -3.6044560354        1.9515416567
 H         -1.8165694011       -3.3285071433        0.9589159208
 C         -1.7223315031       -3.4568196244       -1.1638528074
 C         -0.6845422848       -3.5637193588       -2.2369636022
 C         -0.9750807971       -4.7427755379       -1.3612804105
 H         -1.4990520145       -5.5882195529       -1.7804585989
 H         -0.2374175931       -5.0029566242       -0.6169984885
 H         -1.0274122592       -3.5765808562       -3.2604069746
 H          0.2519996543       -3.0469035297       -2.0997334452
 H         -2.7544768197       -3.4397083857       -1.4987536789
