  62
        -98.93961337
 C          1.0169607138        1.7613972412        0.4218903695
 C          1.4313759848        0.6028463109        1.1204983426
 C          2.7183295635        0.0093098172        0.7138964793
 C          3.4053297310        0.5762392969       -0.2931447474
 C          4.7142218804        0.1339284284       -0.8889614700
 C          4.4877441594       -0.8120619541       -2.0803617312
 C          4.3826367784       -2.2914015691       -1.7144925189
 H          5.3626844685       -2.6516395933       -1.3946757962
 H          4.1154436043       -2.8326432258       -2.6249304009
 C          3.3579703294       -2.6221086336       -0.6268793707
 H          3.1193192015       -3.6834957499       -0.7089410241
 H          2.4364244012       -2.0656673942       -0.8070961843
 C          3.8681719119       -2.3348739099        0.7926128818
 H          4.9394973450       -2.1397465033        0.7587026563
 H          3.7382298560       -3.2231427941        1.4140970235
 C          3.1546303585       -1.1872136671        1.5157606261
 H          3.7878202986       -0.8364497032        2.3383075147
 H          2.2330221907       -1.5618213138        1.9717000948
 H          5.3162830340       -0.6948049294       -2.7819231721
 H          3.5774056083       -0.4928459147       -2.5942882766
 H          5.3476378270       -0.3251997395       -0.1360911627
 H          5.2050191327        1.0391707990       -1.2527757339
 O          2.9453632629        1.6653733273       -0.9698910863
 C          1.7496978900        2.2811894437       -0.6447231520
 O          1.4690123251        3.2590882094       -1.3628976436
 O          0.7566901061        0.0857185394        2.0513333052
 C         -0.2968884593        2.4139956295        0.8188350654
 C         -1.3102057348        2.1479900640       -0.2665655072
 C         -1.7663012526        3.1174157713       -1.1496844276
 C         -2.6657530000        2.7822450590       -2.1469741206
 C         -3.1422406348        1.4898865298       -2.2679530791
 C         -2.6949590707        0.5125265461       -1.3850947044
 C         -1.7771770598        0.8456674115       -0.4027706502
 H         -1.4214415595        0.0851286682        0.2772633638
 N         -3.1486045720       -0.8116644411       -1.4807775306
 S         -3.4870658562       -1.6670961588       -0.0801630449
 O         -4.4081481633       -2.7001879156       -0.5080506857
 O         -3.9616338429       -0.7963029328        0.9700504764
 C         -1.9507171517       -2.4360919466        0.3777484624
 C         -1.5111099112       -2.3633704253        1.6835075996
 C         -0.3416902455       -3.0183900387        2.0342962511
 C          0.3619815296       -3.7310317718        1.0770960044
 C         -0.0921036305       -3.7927772683       -0.2318356913
 C         -1.2614246150       -3.1424553999       -0.5882193993
 H         -1.6493304646       -3.1710475010       -1.5930093582
 H          0.4614634326       -4.3454501374       -0.9738316349
 H          1.2721094325       -4.2397515231        1.3526692232
 H          0.0156700820       -2.9596999014        3.0498171623
 H         -2.0799870704       -1.7873730965        2.3960053304
 H         -3.8487713549       -0.9697928816       -2.1910818364
 H         -3.8527126766        1.2348067690       -3.0398151205
 H         -3.0078916346        3.5415296733       -2.8340028955
 H         -1.4059140655        4.1292202000       -1.0673176712
 H         -0.6278139233        1.8778353833        1.7197759965
 C         -0.1256147808        3.8780395000        1.1600584500
 C         -1.1937300601        4.5784343296        1.9439188852
 C          0.1260771578        4.2713779351        2.5835201903
 H          0.8066736144        5.0862725890        2.7796911168
 H          0.1657143332        3.4826739431        3.3206773478
 H         -1.4219188375        5.6056063783        1.7036612096
 H         -2.0518201756        3.9960530691        2.2449881832
 H          0.3936516563        4.4384319391        0.3922058734
