  62
        -98.94430470
 C          2.3772460034        1.1189066598        0.2129742921
 C          2.3890928276       -0.1928271729       -0.3199849611
 C          3.4170940331       -1.0942141520        0.2225391876
 C          4.2431707937       -0.6526015736        1.1881416085
 C          5.3703267182       -1.4440412649        1.7839571406
 C          6.6789691768       -1.2083426391        1.0164727181
 C          6.5409188407       -1.3522105096       -0.4991482578
 H          5.8948217951       -0.5559081653       -0.8755848660
 H          7.5309618014       -1.1946981660       -0.9323338405
 C          5.9913197089       -2.7093418517       -0.9602600758
 H          6.5922470809       -3.0638129438       -1.8003299204
 H          6.0915417470       -3.4418657103       -0.1585924579
 C          4.5375929216       -2.6766715105       -1.4359631067
 H          4.3212162858       -3.6247764474       -1.9356994005
 H          4.4115118831       -1.8815565927       -2.1752087066
 C          3.4813221438       -2.4865233179       -0.3397116585
 H          2.4996215265       -2.6758245443       -0.7846851373
 H          3.6407664113       -3.2169928286        0.4561801441
 H          7.0297114579       -0.1968407378        1.2334845670
 H          7.4262973333       -1.9136623370        1.3842558010
 H          5.5039477154       -1.1258506844        2.8191967018
 H          5.1128161751       -2.5012787763        1.7696488141
 O          4.1741715283        0.6010446551        1.7033924587
 C          3.2480279395        1.5142827249        1.2310784854
 O          3.2968510080        2.6291631389        1.7877097628
 O          1.5950942236       -0.5982009153       -1.2101311476
 C          1.3727356502        2.1537781754       -0.2701743187
 C         -0.0049349343        1.7054026708        0.1520761365
 C         -0.3858794334        1.8699110778        1.4814660971
 C         -1.6144212933        1.4186701174        1.9237863717
 C         -2.4863454987        0.7862146748        1.0535397157
 C         -2.1080852674        0.6013612523       -0.2685459551
 C         -0.8804266135        1.0746288774       -0.7161264667
 H         -0.5965216373        0.9145758704       -1.7439330051
 N         -2.9809713720       -0.0417584314       -1.1608988545
 S         -3.7868001787       -1.4241322060       -0.6590760470
 O         -3.0363877453       -2.1619850593        0.3304998020
 O         -4.1133870634       -2.1312864912       -1.8784390813
 C         -5.2912584993       -0.7936781227        0.0584065013
 C         -5.6865531179       -1.2186590867        1.3116073818
 C         -6.8676027082       -0.7266486448        1.8454516670
 C         -7.6294442482        0.1760761768        1.1198143875
 C         -7.2202375657        0.5909169330       -0.1388037396
 C         -6.0414960320        0.1018034431       -0.6785469666
 H         -5.6906474671        0.3975088945       -1.6529839890
 H         -7.8150179571        1.2935272070       -0.6999249066
 H         -8.5471388792        0.5585567287        1.5379359937
 H         -7.1870933366       -1.0488409504        2.8235384338
 H         -5.0588580947       -1.9169291082        1.8424040475
 H         -2.5912165854       -0.1688988934       -2.0838918734
 H         -3.4407543074        0.4204749890        1.3951520044
 H         -1.8975862021        1.5565331258        2.9563072587
 H          0.3041154696        2.3463826536        2.1645434100
 H          1.6097481640        3.0782393306        0.2730686398
 C          1.5129938542        2.4129552859       -1.7552753644
 C          0.8992834905        3.6444821130       -2.3481558414
 C          2.3883748103        3.5362199662       -2.2198233877
 H          2.9754543234        3.3944884202       -3.1149394030
 H          2.8825708119        4.1291926352       -1.4640740005
 H          0.4628336887        3.5815761490       -3.3332799858
 H          0.3805886453        4.3127012771       -1.6777122437
 H          1.5166080388        1.5081252096       -2.3505177149
