  62
        -98.94048492
 C         -2.3689693471        0.7394964122        0.1328282896
 C         -3.5507980773        1.0817920232       -0.5665347173
 C         -4.8050962436        0.5744617413        0.0044625176
 C         -4.7645035042       -0.1536223632        1.1355758403
 C         -5.9596049607       -0.7771957940        1.7956568592
 C         -6.1963349840       -2.2043935277        1.2820711474
 C         -6.1879942054       -2.3214522655       -0.2420892371
 H         -5.1845003535       -2.0963154707       -0.6105524489
 H         -6.3939280406       -3.3651236827       -0.4892945305
 C         -7.2038571342       -1.4170579920       -0.9538648341
 H         -7.7104987667       -1.9996190440       -1.7261709613
 H         -7.9647675465       -1.0860839552       -0.2462506302
 C         -6.5920721567       -0.1975254703       -1.6457982746
 H         -5.7661354216       -0.5156008508       -2.2870873511
 H         -7.3548369218        0.2455899938       -2.2915557687
 C         -6.0806704307        0.9102975216       -0.7161181622
 H         -6.8632967299        1.1855844477       -0.0064017527
 H         -5.8537282654        1.7840568527       -1.3339573718
 H         -5.4091852788       -2.8495103877        1.6790252184
 H         -7.1534912025       -2.5565686609        1.6708189171
 H         -5.7780752320       -0.8129494720        2.8710604781
 H         -6.8359985140       -0.1609350051        1.6049639509
 O         -3.6107060755       -0.4486709754        1.7879906164
 C         -2.3839118403       -0.0210224403        1.3018253754
 O         -1.4075253639       -0.3744708360        1.9896852625
 O         -3.5551687767        1.7742602269       -1.6201922780
 C         -1.0344996993        1.2244867219       -0.4015469102
 C         -0.1166001037        0.0587155554       -0.6744533596
 C         -0.5951335342       -1.0160586304       -1.4206047898
 C          0.2154389889       -2.0976214673       -1.7031340000
 C          1.5277991558       -2.1244201870       -1.2642728374
 C          2.0165961385       -1.0568627866       -0.5217888072
 C          1.1952030222        0.0243339500       -0.2308726109
 H          1.6026460270        0.8365102391        0.3470675959
 N          3.3371134364       -1.0619619422       -0.0448103348
 S          4.1718041394        0.4026847723        0.0388498689
 O          3.8345520763        1.0691577751        1.2712504656
 O          3.9666374649        1.1600919847       -1.1752150183
 C          5.8512774506       -0.1926870162        0.1194415685
 C          6.3360509882       -0.6437592599        1.3328233371
 C          7.6304131559       -1.1345956137        1.3959716754
 C          8.4139651512       -1.1666878266        0.2517390141
 C          7.9144481009       -0.7089615462       -0.9582013145
 C          6.6201538449       -0.2178948608       -1.0287936723
 H          6.1922559487        0.1560984435       -1.9449912145
 H          8.5270785343       -0.7323673565       -1.8449912062
 H          9.4213161096       -1.5483984937        0.3043200758
 H          8.0232043608       -1.4885806806        2.3354528246
 H          5.6934860319       -0.5907797566        2.1963581087
 H          3.9024306841       -1.7921165590       -0.4559934669
 H          2.1638318908       -2.9673530572       -1.4881244135
 H         -0.1734037597       -2.9247043421       -2.2781897682
 H         -1.6173133409       -0.9902176748       -1.7739164010
 H         -1.2619273663        1.7092606899       -1.3635395021
 C         -0.4364744772        2.2580507580        0.5292168994
 C          0.5048825420        3.2960640518       -0.0020171015
 C         -0.8789954632        3.6851892963        0.4208479163
 H         -1.0001332785        4.2578845098        1.3279899638
 H         -1.6004643837        3.9227319390       -0.3472608319
 H          1.3411966462        3.5939481035        0.6132643038
 H          0.7305042824        3.2721882468       -1.0578209235
 H         -0.2507341892        1.8652773108        1.5234799066
