  62
        -98.93131176
 C          2.6077816692        1.0199541202        0.4818990702
 C          2.9113209793       -0.2018373301        1.1363036397
 C          4.2206237194       -0.8084580397        0.8493937895
 C          5.0547798494       -0.1910315292       -0.0043313501
 C          6.4541841495       -0.5827090888       -0.4092492002
 C          6.7296196098       -2.0682333386       -0.6732907008
 C          5.5592512000       -2.8407489885       -1.2988394312
 H          5.9174638102       -3.3759300781       -2.1802594814
 H          4.7872798899       -2.1449137185       -1.6324522510
 C          4.9426913501       -3.8662334691       -0.3446571617
 H          5.7480743101       -4.3902609592        0.1746841681
 H          4.3956845903       -4.6075027689       -0.9322412621
 C          3.9684181099       -3.2983586897        0.6866360284
 H          3.6862647100       -4.1083723900        1.3635511680
 H          3.0540354599       -2.9648526996        0.1879502485
 C          4.4996799096       -2.1219104100        1.5220325790
 H          5.5568094096       -2.2428562499        1.7456508290
 H          3.9444979895       -2.1009888505        2.4637140089
 H          7.0225918098       -2.5562481090        0.2551356390
 H          7.5938830099       -2.1142684582       -1.3381952607
 H          6.6585674795       -0.0062684383       -1.3148654299
 H          7.1419544294       -0.2229853090        0.3618438101
 O          4.7189449093        0.9737072610       -0.6239598896
 C          3.5021580091        1.6045022107       -0.4137120795
 O          3.3694653290        2.6513571010       -1.0775624490
 H         -0.9978021408        0.2271915592        1.1381369495
 C         -0.8981630907        0.5833652197        0.1215030297
 C          0.2230335692        1.3197385700       -0.2327170799
 C          0.3448703592        1.7600934006       -1.5462838097
 C         -0.6329317907        1.4602517609       -2.4774553599
 C         -1.7482229406        0.7221910005       -2.1220094803
 C         -1.8809715806        0.2795586999       -0.8129987305
 N         -3.0046647005       -0.4829513704       -0.4477703610
 S         -4.5054569705        0.0359068996       -1.0288587709
 O         -4.6847878003       -0.4889839099       -2.3593822611
 O         -4.6167795308        1.4708915295       -0.8957350402
 C         -5.6156796805       -0.7815646811        0.0999050787
 C         -5.9714584802       -2.0943382911       -0.1446651419
 C         -6.8177309302       -2.7349974116        0.7463318877
 C         -7.2901686504       -2.0570674622        1.8603994480
 C         -6.9247263207       -0.7394300322        2.0919109486
 C         -6.0778976907       -0.0928899117        1.2054968389
 H         -5.7758461609        0.9335053083        1.3401084094
 H         -7.2959473508       -0.2142342027        2.9572236988
 H         -7.9500963604       -2.5575508826        2.5512730177
 H         -7.1067011400       -3.7583523016        0.5690295672
 H         -5.5875307201       -2.5777677406       -1.0277786921
 H         -3.0375465606       -0.6648310209        0.5460840390
 H         -2.5198612005        0.4901371507       -2.8386335805
 H         -0.5268921906        1.8072278014       -3.4946801197
 H          1.2156755091        2.3303410409       -1.8312965693
 C          1.2651960590        1.6493880498        0.8103529404
 H          0.9538438190        1.1740666093        1.7506053101
 C          1.3365152887        3.1473014497        1.0349585610
 C          0.2490485885        3.8132656891        1.8213901112
 C          1.6203496385        3.6709386691        2.4092762013
 H          2.2363174584        4.5521408392        2.5064076117
 H          1.7641934086        2.9487442888        3.1997714810
 H         -0.5390674714        3.1881682688        2.2134440309
 H         -0.0815352516        4.7933910692        1.5139135816
 H          1.7585473787        3.6892958801        0.1992128513
 O          2.1228035993       -0.7549051306        1.9493884094
