  62
        -98.94015792
 C          1.3246395053        1.3656805669       -0.2820448231
 C          2.5402128472        1.3672474392        0.4452639294
 C          3.6257232228        0.4898057336       -0.0302703380
 C          3.4100504176       -0.2621390390       -1.1253876688
 C          4.3322737438       -1.2616729717       -1.7720717392
 C          4.4096292416       -2.5820534980       -0.9906499915
 C          4.5806635026       -2.4241621287        0.5178334270
 H          3.7354432324       -1.8588193182        0.9154745269
 H          4.5363291318       -3.4224334267        0.9616328192
 C          5.8879779291       -1.7711472132        0.9616235283
 H          6.7274142527       -2.3514850064        0.5724897335
 H          5.9221493052       -1.8285440618        2.0525474294
 C          6.0777830715       -0.3063409054        0.5593496564
 H          6.3886209676       -0.2189783008       -0.4783396864
 H          6.8979172988        0.0923739338        1.1634204210
 C          4.8690765005        0.5863348691        0.8207902969
 H          4.5391277084        0.4515571815        1.8572748063
 H          5.1876431353        1.6336938600        0.7553673450
 H          3.4807455529       -3.1323193234       -1.1638503039
 H          5.2334805129       -3.1738636666       -1.3937882192
 H          3.9230709155       -1.4691668140       -2.7634544070
 H          5.3209605527       -0.8322032270       -1.9038500312
 O          2.2292808842       -0.2269203981       -1.8028395897
 C          1.1605187418        0.5598189557       -1.4089921755
 O          0.1642264777        0.4487005257       -2.1498948560
 O          2.7193733243        2.0855450101        1.4673461982
 C          0.2220421973        2.2599845972        0.2504979609
 C         -0.6840643097        1.5369981898        1.2222920647
 C         -1.2269991583        2.2148386044        2.3090487354
 C         -2.0715417881        1.5683565873        3.1921947440
 C         -2.3994356320        0.2375404649        3.0049216963
 C         -1.8592423815       -0.4515330447        1.9252492001
 C         -1.0080916139        0.2012067947        1.0434248016
 H         -0.5848622078       -0.3531220525        0.2212052582
 N         -2.1540414567       -1.8076044961        1.7247661015
 S         -2.3712706605       -2.4054342294        0.1759823094
 O         -3.0924981195       -3.6448902124        0.3819875372
 O         -1.1036996635       -2.5234933204       -0.4975605538
 C         -3.4449345169       -1.2183070293       -0.6094191144
 C         -4.7628633409       -1.1992135747       -0.1918483923
 C         -5.6258252593       -0.2594869710       -0.7288600223
 C         -5.1569321921        0.6463721793       -1.6688897884
 C         -3.8343756311        0.6099676992       -2.0797278498
 C         -2.9629924202       -0.3294078783       -1.5471300450
 H         -1.9270620599       -0.3690245392       -1.8473933665
 H         -3.4653717928        1.3099658234       -2.8128799272
 H         -5.8256421213        1.3828638628       -2.0858110903
 H         -6.6563751183       -0.2333330796       -0.4135007718
 H         -5.0896716015       -1.9297128043        0.5304173700
 H         -2.8336251581       -2.1906682879        2.3655462435
 H         -3.0559838998       -0.2709579625        3.6939943081
 H         -2.4805299191        2.1042918058        4.0348302203
 H         -0.9690140168        3.2505840565        2.4684214154
 H          0.7383585732        3.0519024362        0.8117655835
 C         -0.6199011444        2.9098470036       -0.8313671651
 C         -1.2385818759        4.2525395274       -0.5898458589
 C         -0.0958365571        4.1155579389       -1.5498287377
 H         -0.2867923106        4.2057501999       -2.6083755134
 H          0.8711498613        4.4927478508       -1.2495356698
 H         -2.2239527560        4.4413278876       -0.9864300232
 H         -1.0439577416        4.7373054310        0.3542979826
 H         -1.1840295617        2.1939248970       -1.4140503548
