  62
        -98.94398684
 C         -1.6892600506       -1.3123803028        0.3186302297
 C         -1.3636630902       -0.2600835336       -0.5652380527
 C         -1.9335059957        1.0615532075       -0.2585595042
 C         -2.6943414881        1.2125011525        0.8411796968
 C         -3.3420317575        2.4435650794        1.4400797889
 C         -3.5160814445        3.7162626001        0.6149798299
 C         -4.4831276930        3.5917937838       -0.5613884500
 H         -5.4936698981        3.4543160674       -0.1686415054
 H         -4.4660337253        4.5329261326       -1.1153769895
 C         -4.1998119220        2.4425187641       -1.5252336926
 H         -4.3334356061        1.4898283910       -1.0087050314
 H         -4.9461728127        2.4844010482       -2.3230548083
 C         -2.8186516767        2.4639099339       -2.1775532275
 H         -2.8175595460        1.7061040911       -2.9651748329
 H         -2.6488949837        3.4348653595       -2.6463965460
 C         -1.6354028888        2.1568469496       -1.2411089373
 H         -0.8025162254        1.8002990845       -1.8539410177
 H         -1.2919086617        3.0483536449       -0.7204530340
 H         -2.5495225066        4.0786219894        0.2769894297
 H         -3.9174603735        4.4728533070        1.2950096641
 H         -4.3207838103        2.1167825096        1.8063069544
 H         -2.7444813646        2.6855138294        2.3267772519
 O         -2.9660259587        0.1686441022        1.6793883802
 C         -2.4704858415       -1.1021880550        1.4509097877
 O         -2.7934267731       -1.9462150378        2.3134993265
 H          0.4857193409       -1.2116976565        1.6260661578
 C          1.0527475123       -1.7706637546        0.8954987697
 C          0.3947945098       -2.6081664314        0.0037108113
 C          1.1537559063       -3.3242725269       -0.9137231217
 C          2.5298694444       -3.1777926697       -0.9526476222
 C          3.1740530775       -2.3015578828       -0.0983047957
 C          2.4240871394       -1.5897903056        0.8306114467
 N          3.0240149430       -0.6669165578        1.7136415551
 S          2.5713502653        0.9406440959        1.5587247726
 O          3.3800675397        1.6500623011        2.5276383881
 O          1.1442307907        1.0711800560        1.7010515866
 C          3.0987324260        1.3887221359       -0.0859688029
 C          4.3000726280        2.0559557186       -0.2344054278
 C          4.7536201838        2.3485564436       -1.5100888065
 C          4.0065765819        1.9604570812       -2.6123520186
 C          2.8064580092        1.2873447381       -2.4456650692
 C          2.3430781320        0.9942170505       -1.1717236050
 H          1.4093636602        0.4739423879       -1.0229415442
 H          2.2191314545        0.9808490630       -3.2964693627
 H          4.3600321823        2.1838455068       -3.6066269079
 H          5.6862509643        2.8734326825       -1.6405268732
 H          4.8443940419        2.3387095319        0.6522555802
 H          4.0337941779       -0.7206479115        1.7309341544
 H          4.2440244190       -2.1660208896       -0.1471991838
 H          3.1060355859       -3.7394305131       -1.6719114000
 H          0.6659555989       -3.9928077514       -1.6041631439
 C         -1.1103454327       -2.6961675642        0.0879287858
 H         -1.3737326187       -3.2897581317        0.9761185008
 C         -1.7432737382       -3.3327456357       -1.1329117897
 C         -1.9252695704       -4.8183615538       -1.2063565405
 C         -3.1128698887       -3.9267162402       -1.0070941827
 H         -3.8083265796       -3.7990676995       -1.8229938235
 H         -3.5757876256       -3.8961449435       -0.0310760774
 H         -1.8095508159       -5.3060475270       -2.1625498101
 H         -1.5891215814       -5.4062287873       -0.3655990839
 H         -1.5122041508       -2.7966939228       -2.0462821901
 O         -0.6147209013       -0.4133058344       -1.5668625744
