  62
        -98.94556192
 C         -1.9694209411       -1.5127411848       -0.1048003946
 C         -1.6833565664       -0.2625833577       -0.7057317453
 C         -2.8065455019        0.6846958774       -0.7647257251
 C         -4.0124874118        0.3092893614       -0.3010134046
 C         -5.2252248580        1.1922030913       -0.2527927808
 C         -5.3186564288        1.9294905057        1.0905098462
 C         -4.0185240718        2.6168628221        1.5081197962
 H         -4.2112807676        3.1294603933        2.4531632906
 H         -3.2596273717        1.8559938803        1.7048856982
 C         -3.4744131664        3.6209513001        0.4825607393
 H         -3.1669891511        4.5262892525        1.0102713936
 H         -4.2657174007        3.9050714277       -0.2121497439
 C         -2.2583947098        3.1295924063       -0.3054096493
 H         -1.5000930307        2.7533600213        0.3856368704
 H         -1.8312788107        3.9877512912       -0.8305011990
 C         -2.5328385125        2.0410847596       -1.3504809370
 H         -3.3499680866        2.3529350726       -2.0040082814
 H         -1.6289473097        1.9242727111       -1.9550954232
 H         -5.5881384056        1.2067545318        1.8643326131
 H         -6.1189372640        2.6688939681        1.0242515135
 H         -6.1115832373        0.5676906112       -0.3767587168
 H         -5.1808464111        1.9087912684       -1.0704359287
 O         -4.2558408418       -0.9163673493        0.2314297689
 C         -3.2384482748       -1.8470445333        0.3655990894
 O         -3.5835144172       -2.9159265288        0.9096662167
 O         -0.5548206582        0.0468577897       -1.1661671467
 C         -0.8622253022       -2.5408372996        0.0482921185
 C          0.2963274190       -1.9063744721        0.7772823817
 C          0.0592423110       -1.3087313970        2.0127348481
 C          1.0748273931       -0.6714479281        2.6984991654
 C          2.3516972548       -0.6132855791        2.1669330733
 C          2.5995481516       -1.2106975415        0.9395263082
 C          1.5789552709       -1.8610753530        0.2570399538
 H          1.7915142546       -2.3171413966       -0.6970177495
 N          3.8936359501       -1.1512891353        0.3871507223
 S          4.5983580008        0.3612733249        0.2340096825
 O          5.6615203620        0.1819529318       -0.7295479844
 O          4.9985415079        0.8329999502        1.5360633040
 C          3.3244402718        1.4113727080       -0.4372097573
 C          3.0328033926        1.3019975065       -1.7819217383
 C          2.0201238005        2.0814481341       -2.3138728575
 C          1.3156049108        2.9478475974       -1.4939497282
 C          1.6169558210        3.0428197679       -0.1451765792
 C          2.6296952846        2.2660647308        0.3931330013
 H          2.8968250306        2.3138196738        1.4362243252
 H          1.0634365665        3.7168462414        0.4892031071
 H          0.5248354612        3.5521297970       -1.9095131059
 H          1.7777332869        2.0061465173       -3.3617608878
 H          3.6092088548        0.6233365960       -2.3904294616
 H          3.9775755465       -1.6559122678       -0.4840094204
 H          3.1548182589       -0.1103700056        2.6806441106
 H          0.8722251184       -0.2111931736        3.6539910410
 H         -0.9413720275       -1.3430446745        2.4231450796
 H         -1.2716079221       -3.3436631519        0.6778563388
 C         -0.4985065657       -3.1193849474       -1.3030499844
 C          0.1088644349       -4.4861183589       -1.3988502417
 C         -1.3050745889       -4.2608788069       -1.8416187872
 H         -1.5255374569       -4.2834986431       -2.8983653564
 H         -2.1055334528       -4.6379016627       -1.2217934884
 H          0.8576435735       -4.6689108829       -2.1550623766
 H          0.2717373725       -5.0263690318       -0.4785048869
 H         -0.1754006365       -2.3620996090       -2.0084624035
