  62
        -98.93897579
 C         -2.3442100501       -0.7762924488        0.6094924114
 C         -3.4323118501       -0.9887354894       -0.2726007684
 C         -4.6673165700       -0.2517658289        0.0387250710
 C         -4.7059669799        0.5626698020        1.1077575303
 C         -5.8770366598        1.4156012725        1.4989849895
 C         -5.7886811695        2.8084390620        0.8594502683
 C         -5.5026830595        2.7820018006       -0.6420820916
 H         -5.4926514493        3.8175485803       -0.9890647925
 H         -4.5005728696        2.3789159403       -0.8066445713
 C         -6.5153540796        1.9757422801       -1.4672545310
 H         -6.7817799995        2.5529469594       -2.3551491515
 H         -7.4291497396        1.8282280207       -0.8905802109
 C         -5.9999425498        0.6205562996       -1.9549518398
 H         -6.7030948999        0.2372487191       -2.6991383295
 H         -5.0360077298        0.7528094590       -2.4525932899
 C         -5.8410598300       -0.4593094795       -0.8773306889
 H         -6.7657434600       -0.5463080889       -0.3036143688
 H         -5.6600949102       -1.4109120700       -1.3852500081
 H         -4.9864373094        3.3640681922        1.3506242079
 H         -6.7280095394        3.3328610823        1.0440307379
 H         -6.7973809798        0.9217333524        1.1935163799
 H         -5.8756954298        1.5230897834        2.5849670394
 O         -3.6459383199        0.7377720725        1.9377690801
 C         -2.4500179300        0.0820360321        1.7091933307
 O         -1.5643150900        0.3353284427        2.5518118005
 H          1.4115777400       -0.2880824692        0.8385977711
 C          1.1007722600       -0.2406077501       -0.1953090689
 C         -0.1260397901       -0.7631310002       -0.5771972685
 C         -0.5088038700       -0.6690180712       -1.9113183986
 C          0.3252768601       -0.0683636822       -2.8362188891
 C          1.5606833702        0.4267612880       -2.4575020895
 C          1.9494168501        0.3424921690       -1.1258259294
 N          3.1893061402        0.8492267192       -0.7043144298
 S          4.0110951700        0.0177802501        0.5149906409
 O          3.9035477098       -1.4075543001        0.3000237421
 O          3.5633215601        0.5056713812        1.7954902505
 C          5.6815459601        0.5633722095        0.2118948305
 C          6.5309017900       -0.2383241812       -0.5271731888
 C          7.8177716301        0.2073778383       -0.7851015492
 C          8.2298010803        1.4417109687       -0.3057274102
 C          7.3661769504        2.2347499295        0.4354532291
 C          6.0786910103        1.7946047999        0.6985501195
 H          5.3761740004        2.3709623805        1.2778783290
 H          7.6910227805        3.1922811797        0.8093865783
 H          9.2314461403        1.7866006684       -0.5081596105
 H          8.4925078200       -0.4083734722       -1.3575889986
 H          6.1689264899       -1.1935869015       -0.8719801880
 H          3.7990807902        1.0888443884       -1.4742492900
 H          2.2168445403        0.8808484472       -3.1845737199
 H          0.0163909901        0.0012476970       -3.8684152892
 H         -1.4641643301       -1.0703816913       -2.2120116283
 C         -0.9921376202       -1.4525955892        0.4504792920
 H         -0.4911302802       -1.3436911984        1.4227798220
 C         -1.0887109504       -2.9332881294        0.1297300133
 C          0.1292608794       -3.7862788695        0.3125321340
 C         -1.0365827006       -3.9328189185        1.2431409241
 H         -1.6478284508       -4.8197268585        1.1687317649
 H         -0.9350171906       -3.5549690577        2.2505782338
 H          0.3173289693       -4.5730768301       -0.4019693153
 H          1.0258736195       -3.3086539193        0.6819356037
 H         -1.7358250905       -3.1503144600       -0.7095932565
 O         -3.4023563502       -1.7487909302       -1.2767012278
