  62
        -98.94468184
 C         -2.5512403133       -0.8518200520        0.2931222604
 C         -2.5039712362        0.0323992850       -0.8121428846
 C         -2.7987112398        1.4434070315       -0.5226310051
 C         -3.1171266537        1.8151842653        0.7293247552
 C         -3.3866742165        3.2238867406        1.1696207033
 C         -2.1083537909        3.9063790066        1.6749562882
 C         -0.9128455802        3.7757586458        0.7301529414
 H         -0.0898594111        4.3453138729        1.1683344581
 H         -0.5849002426        2.7338171298        0.6876892279
 C         -1.1697561798        4.2754482585       -0.6981078857
 H         -2.0372863638        4.9371730498       -0.7129048075
 H         -0.3060340619        4.8602172734       -1.0218003091
 C         -1.3582445420        3.1613228164       -1.7297422281
 H         -0.5454550652        2.4359625140       -1.6252623041
 H         -1.2761016662        3.6021348406       -2.7275546611
 C         -2.6975022525        2.4144035011       -1.6646733233
 H         -2.7922926276        1.8186776966       -2.5773572599
 H         -3.5188929102        3.1336161271       -1.6374997768
 H         -1.8341120987        3.4616771283        2.6342267866
 H         -2.3266079959        4.9634097532        1.8393683952
 H         -3.8056482251        3.7851499283        0.3368139676
 H         -4.1159460607        3.1952577482        1.9812226589
 O         -3.1957297784        0.9345061094        1.7583959918
 C         -2.8839214470       -0.3999068231        1.5747986776
 O         -2.9529938518       -1.0859707832        2.6143105937
 O         -2.2333927333       -0.3115141806       -1.9960256471
 C         -2.1660219587       -2.3244212585        0.2129639554
 C         -0.6597235854       -2.4118147427        0.2684000516
 C         -0.0027986326       -2.9746328704        1.3564410950
 C          1.3787731337       -2.9430384799        1.4411212032
 C          2.1315109416       -2.3228162931        0.4585562871
 C          1.4812658456       -1.7600711592       -0.6303090083
 C          0.1035005717       -1.8333357765       -0.7357786283
 H         -0.3872382225       -1.3762372153       -1.5821631012
 N          2.2322810674       -1.0238700746       -1.5871376538
 S          2.4674455627        0.5622475103       -1.0466275965
 O          1.3505386796        1.0230537952       -0.2524199206
 O          2.7864582975        1.3416331391       -2.2230934106
 C          3.9149789331        0.3984250671       -0.0255448094
 C          5.1286973923        0.1673196966       -0.6432031113
 C          6.2578492386        0.0002560936        0.1423211195
 C          6.1534417076        0.0639044540        1.5240965166
 C          4.9276958643        0.2982526256        2.1285569346
 C          3.7943526045        0.4667067327        1.3481082038
 H          2.8192954828        0.6461024796        1.7729948128
 H          4.8477220959        0.3470561636        3.2026707605
 H          7.0326073886       -0.0693437257        2.1345169318
 H          7.2130199903       -0.1809555008       -0.3235354886
 H          5.1618262308        0.1306955104       -1.7192896149
 H          1.7567451080       -0.9735858243       -2.4794549845
 H          3.2055709619       -2.2646120488        0.5306366816
 H          1.8731229726       -3.3856371136        2.2922769284
 H         -0.5865957925       -3.4130589171        2.1528519656
 H         -2.5667486493       -2.7894214598        1.1234378257
 C         -2.7381283515       -3.0487681570       -0.9879766653
 C         -2.8430716642       -4.5428277303       -0.9473427380
 C         -4.0813895166       -3.7018731569       -0.8754292515
 H         -4.7397946505       -3.6732666897       -1.7305163823
 H         -4.5943648601       -3.6279070041        0.0725605169
 H         -2.6495066627       -5.0965715572       -1.8530807198
 H         -2.5182782633       -5.0424232064       -0.0472509695
 H         -2.4914466748       -2.5847372453       -1.9333929874
