  62
        -98.94579122
 C          2.1921254318        1.1697238785        0.1972327323
 C          1.8618087604        0.2464822007       -0.8248579179
 C          2.6345708062       -1.0059362173       -0.8274627462
 C          3.5826042322       -1.1998268895        0.1075663892
 C          4.4183877608       -2.4398138520        0.2387334761
 C          3.7618325175       -3.4604832941        1.1785251450
 C          2.2906590423       -3.7307389594        0.8628016487
 H          1.9382816183       -4.4866965074        1.5681618218
 H          1.7129628849       -2.8228904486        1.0537629994
 C          2.0272942019       -4.2067333460       -0.5727469388
 H          2.9541086621       -4.5711174948       -1.0171081019
 H          1.3307443965       -5.0472124555       -0.5396553036
 C          1.4054574472       -3.1489968258       -1.4862712779
 H          0.5260173531       -2.7228801418       -0.9974922394
 H          1.0631372651       -3.6482528110       -2.3965150491
 C          2.3320601719       -2.0026745809       -1.9115708679
 H          3.2558840986       -2.4134628194       -2.3238510611
 H          1.8262393168       -1.4384810891       -2.7005997869
 H          4.3245308460       -4.3940104372        1.1228429389
 H          3.8298283524       -3.0842992225        2.2021471730
 H          4.5641169492       -2.8790423066       -0.7462515921
 H          5.3898973143       -2.1566066487        0.6473888069
 O          3.8609955063       -0.2944377322        1.0805829861
 C          3.1734826162        0.9075216234        1.1521387958
 O          3.5189823068        1.6425476187        2.1001567306
 H          0.1705381985        0.6368973435        1.6586066647
 C         -0.5197437071        1.2997800943        1.1503361674
 C         -0.0163314317        2.3306469000        0.3675774452
 C         -0.9175507752        3.1715856839       -0.2738804268
 C         -2.2814634353        2.9813384202       -0.1326764038
 C         -2.7777924017        1.9475437116        0.6391955913
 C         -1.8851935582        1.0961797029        1.2784331539
 N         -2.3789233637        0.0215982202        2.0369549952
 S         -3.6355595853       -0.8740474839        1.3849975641
 O         -4.8920640318       -0.2523989705        1.7247938017
 O         -3.4461524000       -2.2152494199        1.8939763714
 C         -3.4115340990       -0.8340748783       -0.3851787116
 C         -4.4724243952       -0.4849332345       -1.1960884829
 C         -4.2813022741       -0.4435040313       -2.5678065052
 C         -3.0363270960       -0.7392410015       -3.1010588146
 C         -1.9804737103       -1.0897876761       -2.2739610822
 C         -2.1705292504       -1.1438139049       -0.9036177724
 H         -1.3614931681       -1.4068075473       -0.2401091808
 H         -1.0029634066       -1.2936519097       -2.6796906023
 H         -2.8832468816       -0.6931559727       -4.1676761310
 H         -5.0999372625       -0.1720958869       -3.2147450906
 H         -5.4181350472       -0.2458888241       -0.7371672742
 H         -1.6617636334       -0.5790477764        2.4156156869
 H         -3.8367920616        1.7852944056        0.7599281436
 H         -2.9683192182        3.6449006272       -0.6349341749
 H         -0.5509373712        3.9780212219       -0.8870654235
 C          1.4797047597        2.5076974915        0.2675371801
 H          1.8254169919        2.9870371012        1.1958626105
 C          1.8988120123        3.3690637766       -0.9077659163
 C          2.0035491102        4.8567039911       -0.7625478746
 C          3.2451609793        4.0254678140       -0.8746735272
 H          3.8202913884        4.0723804646       -1.7872013909
 H          3.8456964722        3.8767225599        0.0114296361
 H          1.7683954646        5.2847330115        0.2003155933
 H          1.7286737496        5.4778399524       -1.6017617332
 H          1.5609820993        2.9679513600       -1.8563631457
 O          0.9737110062        0.4534629563       -1.6896753323
