  62
        -98.93808951
 C         -2.0582183217       -1.0811226161        0.1497981964
 C         -2.4210633981        0.1318890351       -0.4780352721
 C         -3.7014018173        0.7432869713       -0.0611198364
 C         -4.4380677560        0.1362875368        0.8870487481
 C         -5.7755846749        0.5493407458        1.4412506049
 C         -6.9356555824        0.2461856263        0.4793174664
 C         -6.6728765717        0.6115879429       -0.9791342393
 H         -5.7853860219        0.0801697497       -1.3272875599
 H         -7.5192975615        0.2509447109       -1.5695513684
 C         -6.5123172592        2.1043175453       -1.2566552376
 H         -7.4168022987        2.6275196045       -0.9383528099
 H         -6.4230929575        2.2253153139       -2.3393423821
 C         -5.3047785193        2.7800491163       -0.6033634321
 H         -5.4849234520        2.9739206858        0.4506108961
 H         -5.1812463949        3.7568698108       -1.0804417972
 C         -3.9841196118        2.0384164055       -0.7844567559
 H         -3.8350359277        1.8290246907       -1.8499247893
 H         -3.1651910687        2.7136909957       -0.5071904637
 H         -7.1377540905       -0.8268348223        0.5221449783
 H         -7.8241285722        0.7709127401        0.8345569461
 H         -5.9250222963       -0.0258963747        2.3576955446
 H         -5.7597901696        1.6012085927        1.7108398909
 O         -4.0459537755       -1.0324181657        1.4698524996
 C         -2.8668505409       -1.6608855973        1.1314770227
 O         -2.6487266536       -2.7171672693        1.7580225251
 O         -1.7302609303        0.7032690520       -1.3641318541
 C         -0.7625174345       -1.8156063167       -0.1630682273
 C          0.3869503585       -1.0849911052        0.4888822100
 C          0.8777361840       -1.5164088957        1.7170299008
 C          1.8990702454       -0.8305560298        2.3496487416
 C          2.4519763764        0.2984795154        1.7719301157
 C          1.9697507948        0.7355130219        0.5447404856
 C          0.9532340191        0.0387758062       -0.0951460526
 H          0.5655162331        0.4028638097       -1.0336859947
 N          2.5168677454        1.8837288015       -0.0474934889
 S          4.1712674937        2.1047068173       -0.0020286545
 O          4.5561405743        2.6428978608        1.2797484823
 O          4.4762515544        2.9314828818       -1.1486681505
 C          4.8726466896        0.4759715559       -0.2030026516
 C          4.5584631077       -0.2338081615       -1.3450877686
 C          5.0769227583       -1.5083153020       -1.5052594975
 C          5.8956411799       -2.0493125851       -0.5255649713
 C          6.2053027175       -1.3223722974        0.6131001181
 C          5.6889002622       -0.0471422823        0.7789291649
 H          5.9024345407        0.5521392262        1.6491111652
 H          6.8435943889       -1.7444272302        1.3725438469
 H          6.2945636433       -3.0433506346       -0.6521701829
 H          4.8385871176       -2.0755987344       -2.3905278864
 H          3.9222655297        0.2159618536       -2.0903476598
 H          2.1226146633        2.1121470966       -0.9475576875
 H          3.2331412474        0.8573120187        2.2612746051
 H          2.2660137132       -1.1747796183        3.3045361427
 H          0.4349863816       -2.3861518641        2.1811935642
 H         -0.8555064991       -2.7944894142        0.3252089141
 C         -0.5577268387       -2.0374232939       -1.6481062793
 C          0.4438644343       -3.0561823849       -2.0990237915
 C         -1.0218371869       -3.3216815471       -2.2638284866
 H         -1.4449141532       -3.2931864691       -3.2569534026
 H         -1.4866185889       -4.0490015539       -1.6139553350
 H          1.0283566618       -2.8477943517       -2.9818202646
 H          0.9752003173       -3.6043607127       -1.3359430998
 H         -0.6693789392       -1.1397614332       -2.2413708620
