  62
        -98.93641948
 C          1.8236952642        1.1878018773       -0.2316090457
 C          3.2093259684        1.3364979779        0.0255199491
 C          4.0721062748        0.2443417623       -0.4357272880
 C          3.5295843830       -0.8058023370       -1.0784071478
 C          4.2776031306       -1.9898555204       -1.6285066647
 C          4.5670058833       -3.0829406852       -0.5904350078
 C          5.6473965687       -2.7371741701        0.4351169367
 H          5.9019585158       -3.6622548527        0.9561872894
 H          6.5448567918       -2.3991488818       -0.0839030560
 C          5.2237427157       -1.6877137767        1.4723662624
 H          4.1351544608       -1.5960836409        1.4746221160
 H          5.5189897337       -2.0212273164        2.4697526447
 C          5.8352213254       -0.3030073424        1.2589259545
 H          6.9187858962       -0.3568299191        1.3853729858
 H          5.4401882952        0.3685494677        2.0255033557
 C          5.5341370926        0.3153327174       -0.1126128736
 H          5.8172924437        1.3703905693       -0.0830566062
 H          6.1191805527       -0.1818001405       -0.8861261160
 H          3.6372777375       -3.3269401244       -0.0715594260
 H          4.8868879511       -3.9733259800       -1.1365642643
 H          3.6490763676       -2.4169795884       -2.4128855769
 H          5.2134629817       -1.6557056247       -2.0773413854
 O          2.1971123595       -0.9025125558       -1.3243005476
 C          1.3087776771        0.0801472394       -0.9034505641
 O          0.1222727414       -0.1613402130       -1.1860846572
 O          3.6993590028        2.3372575773        0.6146681838
 C          0.8933801958        2.2993154441        0.2382559721
 C         -0.2485152304        1.7048904248        1.0229153419
 C          0.0788469198        1.2046482233        2.2855778019
 C         -0.8703270055        0.6184276130        3.0975242048
 C         -2.1849834576        0.5206783862        2.6755681692
 C         -2.5278822210        1.0130601805        1.4240273957
 C         -1.5650714817        1.5930184193        0.6049754766
 H         -1.8833191446        1.9180284017       -0.3671493771
 N         -3.8656128682        0.9766974872        0.9879720446
 S         -4.3019621552        0.2838067594       -0.4715697482
 O         -3.5864889326        0.9084610148       -1.5519506925
 O         -5.7441740062        0.4040532961       -0.5065965258
 C         -3.8675200573       -1.4378834718       -0.3023025000
 C         -2.5514684122       -1.8258159437       -0.4515220371
 C         -2.2284481012       -3.1599954408       -0.2510668460
 C         -3.2130371957       -4.0727272601        0.0937370000
 C         -4.5300527562       -3.6634858796        0.2404060044
 C         -4.8615249208       -2.3330001625        0.0453141486
 H         -5.8716750437       -1.9691965764        0.1431017611
 H         -5.2954682720       -4.3746959840        0.5063607111
 H         -2.9515545447       -5.1080059152        0.2472612853
 H         -1.2023735670       -3.4716678217       -0.3678633804
 H         -1.7995220132       -1.1022523372       -0.7254408008
 H         -4.5137491862        0.6700209130        1.7001481489
 H         -2.9359868313        0.0724809288        3.3083971740
 H         -0.5875902346        0.2368366880        4.0669567079
 H          1.1044589355        1.2801488093        2.6214803835
 H          1.5022457926        2.8658665848        0.9631036691
 C          0.6531143699        3.2710375776       -0.9082949592
 C         -0.2800593836        3.0741359208       -2.0626272388
 C         -0.5427541719        4.1607666107       -1.0606422231
 H         -0.3759498935        5.1830616043       -1.3671531452
 H         -1.3653394067        4.0417104615       -0.3738439956
 H          0.0742674315        3.3625058581       -3.0428430452
 H         -0.9122987783        2.2007524086       -2.0876483939
 H          1.6051600808        3.7278137480       -1.1732956865
