  62
        -98.94071417
 C         -2.6455134158       -0.0718939681       -0.1774212640
 C         -2.5692970544       -1.2695285378       -0.9320585508
 C         -2.0156965290       -2.4386078894       -0.2431571827
 C         -1.6164751154       -2.3286989666        1.0366241118
 C         -0.9925629921       -3.4175164356        1.8656977801
 C          0.5214642732       -3.5451391837        1.6436483083
 C          0.9274819776       -4.2053459248        0.3247152152
 H          1.9859540495       -4.4602141817        0.4076632484
 H          0.3756706688       -5.1378919328        0.1985959832
 C          0.7304137869       -3.3133051952       -0.9092252797
 H          0.6392583697       -2.2728072158       -0.5859162155
 H          1.6156316308       -3.3759059047       -1.5478174380
 C         -0.4725057164       -3.6840497990       -1.7779500350
 H         -0.3132504790       -4.6708271451       -2.2191491436
 H         -0.5435181648       -2.9584418689       -2.5925909916
 C         -1.8166466866       -3.6941491089       -1.0384452982
 H         -2.6151945421       -3.7465075756       -1.7829348034
 H         -1.8837029257       -4.5675401203       -0.3903773072
 H          0.9623253693       -2.5459386232        1.6997785715
 H          0.9257105270       -4.1392790666        2.4668243071
 H         -1.1677828067       -3.1537452400        2.9108668536
 H         -1.4797287232       -4.3709971487        1.6586137063
 O         -1.7429009757       -1.1761345278        1.7421855865
 C         -2.1857087838       -0.0071585136        1.1412748184
 O         -2.1413256487        0.9881312821        1.8889601143
 H         -0.4987525024        0.7310870892       -1.4739484161
 C         -0.6125959723        1.7190765342       -1.0418443962
 C         -1.8862564159        2.1750885723       -0.7227388369
 C         -2.0107669876        3.4392769532       -0.1651027897
 C         -0.8846974008        4.2011362639        0.1026042139
 C          0.3835975679        3.7154569535       -0.1606912906
 C          0.5127243503        2.4631675300       -0.7424800092
 N          1.8126731120        1.9069643374       -0.9409505513
 S          2.2222438305        1.0026118789        0.4388510022
 O          1.3859008693       -0.1745333817        0.5354428822
 O          2.2199728898        1.8975255139        1.5673255558
 C          3.8961745515        0.5241819145        0.0510885093
 C          4.8766764408        1.4969894967        0.0864461042
 C          6.1765741267        1.1491674596       -0.2433137692
 C          6.4720879409       -0.1579799992       -0.6020024783
 C          5.4770379142       -1.1228820303       -0.6327350870
 C          4.1739046848       -0.7808373494       -0.3054387843
 H          3.3683105670       -1.4981433706       -0.3108891566
 H          5.7089227121       -2.1385830916       -0.9101028985
 H          7.4847485891       -0.4267836768       -0.8580733780
 H          6.9534851380        1.8961366070       -0.2196224248
 H          4.5989160785        2.4961066231        0.3778630982
 H          1.8009994870        1.2524788068       -1.7152732841
 H          1.2679455597        4.2746606555        0.0968189576
 H         -0.9975788496        5.1757104512        0.5529447134
 H         -2.9868262595        3.8120531794        0.1003186087
 C         -3.0206482720        1.2014877791       -0.9223320957
 H         -3.0294923700        0.8966153768       -1.9829478032
 C         -4.3977089225        1.7710668718       -0.6314759533
 C         -5.5099229141        0.8823004678       -0.1624599544
 C         -4.9440488423        1.9220966513        0.7552271110
 H         -5.5463977477        2.7925409444        0.9715947163
 H         -4.3204722609        1.6059058765        1.5757855758
 H         -6.4979582724        1.0338886007       -0.5703698270
 H         -5.2688493083       -0.1528936644        0.0324382564
 H         -4.6701856631        2.5434769152       -1.3446069650
 O         -2.9241120588       -1.3490508736       -2.1401134538
