  62
        -98.94011604
 C          2.5206211742        0.1411271984       -0.4816569554
 C          2.1948676554        0.8195442321        0.7157735050
 C          1.6706334282        2.1895441287        0.5735154135
 C          1.4753250405        2.6947651346       -0.6562208688
 C          0.9831370630        4.0631552238       -1.0631941588
 C         -0.1173952007        4.7184305986       -0.2233717616
 C         -1.1987524803        3.7576474146        0.2917820052
 H         -2.1812400048        4.1483879891        0.0190725358
 H         -1.0949674116        2.7777784346       -0.1798078667
 C         -1.1603009999        3.5785255087        1.8105930742
 H         -2.1331545592        3.2105431552        2.1443931610
 H         -0.9937551565        4.5497230082        2.2829247746
 C         -0.1084237792        2.5867892293        2.3014830352
 H         -0.3629051230        1.5860155061        1.9427983864
 H         -0.1424612036        2.5630145493        3.3936987881
 C          1.3329018747        2.8903183096        1.8587939255
 H          1.5082480510        3.9616970378        1.7903183390
 H          2.0107597608        2.4744857716        2.6094817076
 H         -0.5776862547        5.4804561469       -0.8553322673
 H          0.3304638298        5.2398007709        0.6214295615
 H          0.6306514741        3.9394469725       -2.0907782309
 H          1.8490343615        4.7320621868       -1.1011642582
 O          1.7716814447        1.9887076223       -1.7877236346
 C          2.2860579326        0.7069733514       -1.7317166630
 O          2.4987484841        0.1867136508       -2.8486054271
 O          2.3556181342        0.3163554050        1.8586857521
 C          3.0170707792       -1.2943543031       -0.4321362847
 C          1.9510434655       -2.1380035290        0.2254840906
 C          2.1909399078       -3.0348077916        1.2575783273
 C          1.1385157957       -3.7111595987        1.8518105516
 C         -0.1660211174       -3.4927052410        1.4494762741
 C         -0.4126707212       -2.6130061157        0.4006974914
 C          0.6455711882       -1.9725519501       -0.2196330878
 H          0.4436758499       -1.2963619152       -1.0393615435
 N         -1.7192514604       -2.3573112248       -0.0514089806
 S         -2.0408677162       -0.7881264609       -0.5985327842
 O         -1.7553531275       -0.7303730881       -2.0121982683
 O         -1.3758643087        0.1832362086        0.2356445504
 C         -3.8050763215       -0.7056994944       -0.3506836881
 C         -4.6262905417       -1.4336133026       -1.1915697270
 C         -5.9965669801       -1.3916259974       -0.9897278097
 C         -6.5199863380       -0.6259032482        0.0419983241
 C         -5.6836272799        0.1014649495        0.8751071537
 C         -4.3115468713        0.0614612249        0.6806109146
 H         -3.6200564319        0.6119456705        1.2984413762
 H         -6.0927951875        0.6989617380        1.6736822258
 H         -7.5869989958       -0.5936994137        0.1956435480
 H         -6.6501906563       -1.9536624564       -1.6370080853
 H         -4.1743834780       -2.0040262883       -1.9862930408
 H         -2.4294343947       -2.6856450119        0.5890310762
 H         -0.9867151453       -3.9943479620        1.9392389554
 H          1.3364657327       -4.4005766639        2.6585620141
 H          3.1976893971       -3.1907650213        1.6089828330
 H          3.1169889181       -1.6176562248       -1.4792440493
 C          4.3690573738       -1.3802237466        0.2424506883
 C          5.3167924398       -2.4864703411       -0.1088605912
 C          5.5984653935       -1.0861276575       -0.5615194116
 H          6.4034387374       -0.5415943494       -0.0914940758
 H          5.4601555801       -0.8454563673       -1.6058597564
 H          5.9342952358       -2.9039745434        0.6719064501
 H          4.9958672506       -3.2024716602       -0.8503715600
 H          4.3445142860       -1.0281302798        1.2670191589
