  62
        -98.93941328
 C         -2.5299924210       -1.2240804314       -0.2407274594
 C         -2.1721397612       -0.0465294113       -0.9423135394
 C         -3.2034539615        1.0019883485       -1.0007968694
 C         -4.3957435914        0.7930677382       -0.4143438794
 C         -5.5037415216        1.8021119879       -0.3355491493
 C         -5.3914535118        2.6465745179        0.9417761007
 C         -3.9955463819        3.2215258182        1.1834942807
 H         -4.0443564421        3.8216344182        2.0946584807
 H         -3.2980862618        2.4025502184        1.3758339907
 C         -3.4558574421        4.0829339484        0.0332535207
 H         -4.2767257022        4.3934378182       -0.6141924793
 H         -3.0112812923        4.9883389885        0.4515664807
 C         -2.3743641320        3.4075328287       -0.8124429293
 H         -1.5862937419        3.0146926588       -0.1637465194
 H         -1.9170990122        4.1674662788       -1.4521281193
 C         -2.8540097018        2.2716254686       -1.7248011894
 H         -3.6953069218        2.6150465484       -2.3305061993
 H         -2.0273252617        2.0163302088       -2.3947600694
 H         -6.1158171220        3.4606876078        0.8818957107
 H         -5.6542673517        2.0183710379        1.7958510907
 H         -5.4666716718        2.4440404280       -1.2133254793
 H         -6.4552459815        1.2681664977       -0.3251463093
 O         -4.7100579112       -0.3595577919        0.2298836306
 C         -3.7854973209       -1.3823849417        0.3499629706
 O         -4.1960063507       -2.3698807918        0.9925708306
 H          1.0715041691       -1.5298004906       -0.5227481895
 C          0.7904597991       -1.4964502107        0.5160015905
 C         -0.4765896108       -1.8881827810        0.9188243905
 C         -0.8086336908       -1.8047049411        2.2696654205
 C          0.1052838491       -1.3381735409        3.1936993105
 C          1.3656372990       -0.9361270606        2.7867330105
 C          1.7075923190       -1.0151691605        1.4421371905
 N          2.9983861189       -0.6445945902        1.0182098105
 S          3.1532629087        0.3013138699       -0.3766850795
 O          2.3338283584        1.4868814697       -0.2648199194
 O          2.9589320189       -0.5311331201       -1.5349605395
 C          4.8779990186        0.7422400603       -0.2476158595
 C          5.8278103288       -0.1902230695       -0.6194009295
 C          7.1694403487        0.1339535908       -0.4962923295
 C          7.5376670985        1.3779747108       -0.0054423095
 C          6.5735417483        2.3043166706        0.3620524905
 C          5.2298501183        1.9855077503        0.2422551806
 H          4.4451437482        2.6761708101        0.5067693506
 H          6.8622063380        3.2719027107        0.7400381706
 H          8.5825478684        1.6282563711        0.0884046405
 H          7.9219213589       -0.5825143591       -0.7837544395
 H          5.4935687090       -1.1398391096       -1.0032438895
 H          3.5289817488       -0.2205788201        1.7690486705
 H          2.0803348689       -0.5649930004        3.5060756005
 H         -0.1656831409       -1.2798111910        4.2372058105
 H         -1.8010682107       -2.1039146813        2.5788540205
 C         -1.5362070107       -2.3598865512       -0.0483622695
 H         -2.0989070105       -3.1684273113        0.4391925305
 C         -0.9895503706       -2.8767959110       -1.3607583895
 C         -0.3495827303       -4.2308317209       -1.4026949695
 C         -1.6864277504       -4.0132959812       -2.0438852095
 H         -1.7481325504       -4.0050704512       -3.1217962295
 H         -2.5592433303       -4.4266061714       -1.5593132195
 H          0.5109830497       -4.3720401107       -2.0386353595
 H         -0.3152307202       -4.7939186909       -0.4821449295
 H         -0.5738782908       -2.1001504609       -1.9909118295
 O         -1.0568170613        0.1315299490       -1.4989461894
