  62
        -98.93837240
 C         -1.9185842201       -0.8173279599        0.0492758900
 C         -2.3926701899        0.5119848302        0.1289288994
 C         -3.8084911399        0.6765158806        0.5093738293
 C         -4.5500487001       -0.4157850792        0.7628012798
 C         -6.0128513901       -0.4706511989        1.1071358398
 C         -6.8617305401       -0.6724963893       -0.1595761802
 C         -7.2527172699        0.6142585704       -0.8853100207
 H         -7.7324144699        0.3254282001       -1.8233584206
 H         -7.9946061698        1.1506889007       -0.2900122810
 C         -6.0961414998        1.5673058201       -1.1982391811
 H         -6.4156854597        2.2271767398       -2.0072725714
 H         -5.2391235398        0.9994053399       -1.5651306908
 C         -5.6777321497        2.4248016806        0.0054457585
 H         -6.4382163097        2.3435734410        0.7819115186
 H         -5.6499086295        3.4753580704       -0.2914205819
 C         -4.2987520297        2.0960472307        0.5967534987
 H         -3.5320569896        2.6839826103        0.0819599985
 H         -4.2765026197        2.4086161311        1.6462052086
 H         -6.3022988001       -1.3221866097       -0.8375158999
 H         -7.7790673801       -1.1980172791        0.1133489900
 H         -6.1470318202       -1.3378853286        1.7569919001
 H         -6.3162218600        0.4217585214        1.6462385294
 O         -4.0477594102       -1.6791253293        0.6836109403
 C         -2.7334384102       -1.9141320097        0.3273149405
 O         -2.4113672604       -3.1191395197        0.2998965810
 O         -1.6745685498        1.5182395900       -0.1106702310
 C         -0.4792316001       -1.0899275802       -0.3508070298
 C          0.4590549700       -0.3720787500        0.5880896099
 C          0.3165504899       -0.5794023193        1.9584927200
 C          1.1353160500        0.0699746609        2.8606292697
 C          2.1244264901        0.9304775206        2.4158466294
 C          2.2806104601        1.1391610400        1.0517081493
 C          1.4544532801        0.4842654597        0.1466315595
 H          1.5898864501        0.6803982793       -0.9031879705
 N          3.2663220803        2.0187682397        0.5744049889
 S          4.2566371802        1.5724547690       -0.6957639009
 O          5.3439958904        2.5251004589       -0.6601732913
 O          3.5061545203        1.5068071386       -1.9226810509
 C          4.8505622100       -0.0448547709       -0.2365262302
 C          5.9174463700       -0.1250995706        0.6375061899
 C          6.3443140398       -1.3722892305        1.0626869704
 C          5.6930264697       -2.5125928606        0.6168312609
 C          4.6240506797       -2.4149447409       -0.2603084991
 C          4.1951744299       -1.1700086810       -0.6935479697
 H          3.3714736199       -1.0550979412       -1.3784913198
 H          4.1199537196       -3.3028469509       -0.6074744088
 H          6.0215440995       -3.4837590105        0.9519689513
 H          7.1787520798       -1.4521086503        1.7406555105
 H          6.4009047501        0.7855453094        0.9523147695
 H          3.8025868303        2.4727090499        1.2994110287
 H          2.7604284601        1.4459358308        3.1193938492
 H          1.0058402399       -0.0950735786        3.9196403098
 H         -0.4586380302       -1.2499235891        2.3047648302
 H         -0.3314378003       -2.1723422702       -0.2232126394
 C         -0.2676706700       -0.7392078509       -1.8084010900
 C          0.7568918299       -1.4727723714       -2.6186169096
 C         -0.7026819001       -1.7096590613       -2.8633062796
 H         -1.1467111401       -1.3225587916       -3.7681870898
 H         -1.1317266203       -2.6439093511       -2.5306344992
 H          1.3243606000       -0.9217641318       -3.3542897799
 H          1.3112032698       -2.2577791212       -2.1260805793
 H         -0.4204852699        0.3146764790       -2.0127381504
