  62
        -98.93583960
 C         -2.6186046204       -1.2098685697       -0.0057676011
 C         -2.6100208502        0.0096713611       -0.7266544797
 C         -3.9273053501        0.6269077715       -0.9541593392
 C         -5.0344249502        0.0215964211       -0.4893686999
 C         -6.4288124102        0.5617470413       -0.6157550994
 C         -6.8048230202        1.4192922800        0.6005322015
 C         -5.7533568501        2.4674166295        0.9650366827
 H         -6.1396864001        3.0333609587        1.8155428533
 H         -4.8460099001        1.9609442491        1.3025671822
 C         -5.3988027199        3.4337292607       -0.1738031162
 H         -5.3668481299        4.4491320603        0.2267468749
 H         -6.1790853799        3.4106283116       -0.9354433163
 C         -4.0417858699        3.1717149513       -0.8301162064
 H         -3.7967912898        4.0325371620       -1.4579023855
 H         -3.2691517200        3.0986785604       -0.0602509764
 C         -3.9576376900        1.9221159723       -1.7158184878
 H         -4.7765763199        1.9264840431       -2.4380767978
 H         -3.0128158499        1.9689817728       -2.2651719976
 H         -6.9428930703        0.7594101191        1.4602318308
 H         -7.7566625401        1.9121252603        0.3944098220
 H         -6.5030060300        1.1519604723       -1.5269684387
 H         -7.1189408202       -0.2811245285       -0.6818627803
 O         -5.0024315404       -1.1459895197        0.2031777689
 C         -3.8004134504       -1.7740799001        0.4818805983
 O         -3.9122393706       -2.8124495308        1.1638857671
 H          1.1476164997       -1.3149062093       -0.7177469309
 C          0.9253821397       -0.7829406702        0.1947224196
 C         -0.2912559404       -0.9769183108        0.8281089093
 C         -0.5537757704       -0.2566405920        1.9904575101
 C          0.3703151397        0.6376404273        2.4949413311
 C          1.5824941297        0.8319791179        1.8554643614
 C          1.8565751897        0.1155140491        0.7000212107
 N          3.0926888198        0.3110987497        0.0383787009
 S          4.4642809397       -0.2195543013        0.8723722905
 O          4.5107446995       -1.6679279613        0.8798885589
 O          4.5028648497        0.4215799573        2.1606753112
 C          5.7602814498        0.4232698797       -0.1681400488
 C          6.4203690098       -0.4203541194       -1.0402342896
 C          7.4116635199        0.1014122514       -1.8566820290
 C          7.7214748300        1.4511337313       -1.7892344075
 C          7.0488175700        2.2858580304       -0.9089225967
 C          6.0577052799        1.7701281896       -0.0895358773
 H          5.5150248399        2.3792919689        0.6140534333
 H          7.2939177901        3.3345472903       -0.8585530355
 H          8.4937832701        1.8546641219       -2.4249246870
 H          7.9377059899       -0.5454506379       -2.5403243597
 H          6.1531702097       -1.4648693294       -1.0529903708
 H          3.0899030398       -0.1384764493       -0.8690799995
 H          2.3169560598        1.5166790574        2.2457110522
 H          0.1459766597        1.1915810664        3.3944465917
 H         -1.5015351204       -0.4054800025        2.4916834399
 C         -1.3339419604       -1.9477574502        0.3300548282
 H         -1.5989171806       -2.6082369611        1.1728327375
 C         -0.8293707405       -2.8556097990       -0.7822238227
 C         -1.7827117405       -3.4994025579       -1.7430746635
 C         -0.8353452503       -2.4432068575       -2.2226619023
 H         -0.0063076503       -2.7469935069       -2.8456614026
 H         -1.2269887302       -1.4671945972       -2.4610811612
 H         -1.6037402905       -4.5241475376       -2.0320701746
 H         -2.8295065204       -3.2482912479       -1.6525671933
 H          0.0051589095       -3.4684543394       -0.4527547733
 O         -1.5692523901        0.5621998515       -1.1663190991
