  62
        -98.94599380
 C         -1.1142169401       -1.3212299603       -0.0190676209
 C         -1.6874984498       -0.5026669809        0.9887375397
 C         -2.4778918200        0.6478506993        0.5333401405
 C         -2.5826360703        0.8858223701       -0.7864564993
 C         -3.3594130305        2.0161524704       -1.3958967385
 C         -4.7988574506        1.5944038805       -1.7208569684
 C         -5.5108814103        0.8961091299       -0.5622872086
 H         -6.5278835803        0.6737014801       -0.8924347684
 H         -5.0195886002       -0.0602010002       -0.3686112792
 C         -5.5604166199        1.7136409192        0.7360429719
 H         -5.3658560000        2.7645339993        0.5192568424
 H         -6.5686664198        1.6493709790        1.1504410421
 C         -4.6003337996        1.2336468686        1.8258998514
 H         -4.7256004796        0.1582202886        1.9744025008
 H         -4.8760409494        1.7275594581        2.7613443717
 C         -3.1119864597        1.5165437388        1.5836476011
 H         -2.9706352798        2.5734343789        1.3475136217
 H         -2.5830330795        1.2945095683        2.5152471309
 H         -5.3607114606        2.4827912607       -2.0151855178
 H         -4.7749892708        0.9101802610       -2.5723154988
 H         -3.3622837803        2.8589957900       -0.7070396881
 H         -2.8576801607        2.3157141409       -2.3181735285
 O         -2.0177693105        0.0876170906       -1.7253095699
 C         -1.2781473205       -1.0373110396       -1.3768627207
 O         -0.8488209207       -1.6694061891       -2.3610505112
 H          1.2543072096       -0.9836115297       -1.2237363813
 C          1.8006709598       -1.3181981602       -0.3558700017
 C          1.1803339701       -2.1048436607        0.6031534981
 C          1.9266041604       -2.5367133712        1.6942656277
 C          3.2586455604       -2.1875265513        1.8207521975
 C          3.8646469901       -1.3767440208        0.8776466978
 C          3.1270468099       -0.9358962602       -0.2142029418
 N          3.6974262696       -0.0811398097       -1.1772470615
 S          2.8836439495        1.3448905505       -1.5158644505
 O          1.7180330893        1.0895798809       -2.3207813904
 O          3.8900804793        2.2024779708       -2.1051859103
 C          2.4163469599        1.9650860296        0.0890651899
 C          3.3641280901        2.6350091092        0.8386134100
 C          3.0371472904        3.0449655985        2.1205895003
 C          1.7798631906        2.7647739183        2.6349888605
 C          0.8395057204        2.0923672987        1.8701717804
 C          1.1577496700        1.6902833893        0.5827504701
 H          0.4462624399        1.1680662397       -0.0381423700
 H         -0.1354542995        1.8587631784        2.2673627105
 H          1.5272087308        3.0721356077        3.6374156208
 H          3.7626891706        3.5744515282        2.7166542904
 H          4.3276114300        2.8348045595        0.3983330399
 H          4.6772360396        0.1122466802       -1.0214234216
 H          4.8981901602       -1.0845775108        0.9835070077
 H          3.8264297306       -2.5330189918        2.6707489072
 H          1.4519901606       -3.1409747617        2.4523537375
 C         -0.2762037300       -2.4887145806        0.4685531883
 H         -0.6502841997       -2.7135469711        1.4773996582
 C         -0.4014941602       -3.7419188602       -0.3759487224
 C         -0.2037369300       -5.0837673905        0.2602017569
 C         -1.5730723101       -4.6527509403       -0.1702715126
 H         -2.0194262203       -5.1178762798       -1.0361586327
 H         -2.2864376899       -4.3817677007        0.5945991178
 H          0.2959629399       -5.8517981002       -0.3096549237
 H          0.0041798503       -5.1152938511        1.3186024468
 H         -0.0497520604       -3.6079184296       -1.3908845624
 O         -1.5403775095       -0.7258148015        2.2203693795
