  62
        -98.94363250
 C         -1.5857900657       -1.4372747336        0.0567791520
 C         -2.0875255494       -0.4952358244        0.9870505866
 C         -3.1078846846        0.4262081547        0.4756621313
 C         -3.5151342240        0.3286142708       -0.8029010773
 C         -4.5488933739        1.1964430142       -1.4681448404
 C         -3.9940440930        2.5255016144       -1.9999415798
 C         -3.6390982651        3.5602619010       -0.9307700451
 H         -3.4711027484        4.5077230162       -1.4468402299
 H         -4.4914950276        3.6994659268       -0.2652163162
 C         -2.3894790435        3.2192348150       -0.1060145287
 H         -1.8089492284        2.4533667192       -0.6265853073
 H         -1.7525487477        4.1032742726       -0.0282466698
 C         -2.6798952777        2.7391645200        1.3162098635
 H         -1.7302347569        2.4771934197        1.7887745973
 H         -3.1355670064        3.5488935627        1.8898758782
 C         -3.5940027357        1.5094857728        1.3901816438
 H         -3.5648369081        1.1215170828        2.4110844974
 H         -4.6202664789        1.7839994871        1.1484806755
 H         -3.1129588248        2.3160912561       -2.6116624817
 H         -4.7550179801        2.9577558824       -2.6538386515
 H         -4.9396293129        0.6247454280       -2.3126921805
 H         -5.3663035608        1.3930974533       -0.7740275324
 O         -3.0230978596       -0.6053524473       -1.6607191223
 C         -2.0282755361       -1.4912078411       -1.2647858429
 O         -1.6336018177       -2.2544506997       -2.1664549545
 O         -1.6949012408       -0.4241781491        2.1811000442
 C         -0.4977067658       -2.3885378126        0.5092259342
 C          0.7943975372       -2.1550346193       -0.2362278165
 C          1.7337222358       -3.1633186947       -0.4221135169
 C          2.9377443009       -2.9029019042       -1.0539389263
 C          3.2348885085       -1.6337752982       -1.5174453652
 C          2.3021373475       -0.6222218694       -1.3426096180
 C          1.1022029750       -0.8822063603       -0.6983882820
 H          0.3894310977       -0.0787218590       -0.5554186435
 N          2.6163838315        0.6873327204       -1.7865861423
 S          3.6227510625        1.5232450942       -0.7357665202
 O          3.7194856351        2.8677050876       -1.2560356649
 O          4.8555181829        0.7902270518       -0.6104402898
 C          2.7377886554        1.5237299587        0.8119342835
 C          1.9216082216        2.5951887115        1.1145048347
 C          1.1546517275        2.5490571167        2.2674202779
 C          1.1984071054        1.4274622683        3.0812651608
 C          2.0210185222        0.3587890581        2.7612719269
 C          2.8011901325        0.4034513279        1.6169984827
 H          3.4563867533       -0.4063524651        1.3389310213
 H          2.0483279504       -0.5130099440        3.3948368462
 H          0.5816380137        1.3803707029        3.9646299904
 H          0.5204641908        3.3831404220        2.5234420750
 H          1.9101906093        3.4444199736        0.4496469733
 H          1.7946160205        1.2511265242       -1.9556902833
 H          4.1726072280       -1.4067930352       -1.9973264956
 H          3.6542693757       -3.6988773174       -1.1872405411
 H          1.5213036854       -4.1585923054       -0.0669343798
 H         -0.3187831866       -2.1363507825        1.5664177198
 C         -0.9734100254       -3.8257351806        0.4280503722
 C         -0.5530061283       -4.8295938696        1.4587608223
 C         -1.9602356880       -4.3160998767        1.4439499855
 H         -2.7511632242       -4.9751691874        1.1189738501
 H         -2.2602393166       -3.6230861322        2.2164892282
 H         -0.3779043682       -5.8476673429        1.1446827506
 H          0.0962056093       -4.4930912489        2.2529665399
 H         -1.1006471504       -4.1628275049       -0.5944650360
