  62
        -98.94419709
 C         -1.8822441154       -1.3535408119        0.5927709193
 C         -2.6479205600       -0.8158901226       -0.4714667264
 C         -3.2961900442        0.4746787076       -0.1988203077
 C         -3.1131130065        1.0859637554        0.9846207524
 C         -3.6951219965        2.4091713332        1.4008020105
 C         -2.8846526079        3.6181736167        0.9133605427
 C         -3.0019604111        3.9193901693       -0.5816029904
 H         -4.0555634955        3.9711448140       -0.8578996602
 H         -2.5772567791        4.9123222275       -0.7431212766
 C         -2.2773647829        2.9174790379       -1.4919143567
 H         -1.5576439371        2.3419475398       -0.9053649014
 H         -1.7124007996        3.4606797869       -2.2523674507
 C         -3.1987987596        1.9447557311       -2.2271297147
 H         -3.8384741439        2.4946756011       -2.9210983961
 H         -2.5773248721        1.2604162662       -2.8099112533
 C         -4.0897837035        1.1034474353       -1.3046276565
 H         -4.8926848522        1.7156052432       -0.8945384778
 H         -4.5311976379        0.2980481898       -1.8966813856
 H         -1.8361256858        3.4581874888        1.1738041185
 H         -3.2378273606        4.4914414436        1.4666115654
 H         -4.7228486220        2.4883460391        1.0456512174
 H         -3.7037000044        2.4163459593        2.4928349207
 O         -2.3528043868        0.5459330021        1.9744395622
 C         -1.7106472208       -0.6653524069        1.7970660158
 O         -1.0231853305       -1.0256832347        2.7755317745
 H          1.1864200979       -1.8799239968        1.5464908463
 C          1.2679912098       -1.9237786095        0.4682544474
 C          0.1691587278       -2.3395353840       -0.2731321636
 C          0.2696937354       -2.3616074835       -1.6589531883
 C          1.4481538070       -1.9821501235       -2.2780225255
 C          2.5442004945       -1.5766152156       -1.5367627500
 C          2.4493086795       -1.5426281834       -0.1512444769
 N          3.5539807637       -1.1420534935        0.6243326067
 S          4.3370574371        0.2870277914        0.2527696398
 O          5.0494694121        0.1301898739       -0.9899355915
 O          5.1397300548        0.5879727610        1.4158998555
 C          3.0537885986        1.5108952945        0.0658183839
 C          2.6061533951        1.8508758811       -1.1947240438
 C          1.6013531448        2.7973936412       -1.3144873697
 C          1.0648886868        3.3846913056       -0.1790880932
 C          1.5187097573        3.0249665534        1.0806856149
 C          2.5204034085        2.0764978028        1.2069062360
 H          2.9083555648        1.7820828604        2.1690745067
 H          1.0976493823        3.4791429651        1.9637945848
 H          0.2910138867        4.1296804867       -0.2769063079
 H          1.2410323909        3.0755714518       -2.2917208798
 H          3.0580913170        1.3830021934       -2.0536014437
 H          3.3800664776       -1.1915360681        1.6179430644
 H          3.4684411279       -1.2841628015       -2.0080859235
 H          1.5154105288       -2.0034378595       -3.3552254744
 H         -0.5850513102       -2.6516508169       -2.2480341286
 C         -1.1097765107       -2.6591486576        0.4628037504
 H         -0.8400956212       -2.9505627535        1.4869224069
 C         -1.9087742693       -3.7831612893       -0.1593782926
 C         -1.3925548388       -5.1847317165       -0.0409943405
 C         -2.6046300871       -4.7643469236        0.7333570556
 H         -3.5690465298       -5.1426064384        0.4292423883
 H         -2.5069356003       -4.6298617386        1.8011031757
 H         -1.5224561620       -5.8546610101       -0.8769328672
 H         -0.4705464419       -5.3328507210        0.5012775305
 H         -2.4150220533       -3.5058882015       -1.0737448783
 O         -2.7981272598       -1.3650504128       -1.5927517827
