  62
        -98.94471383
 C          2.0613249904        1.1482615498       -0.2975146799
 C          3.1393419706        1.1831553900        0.6274158498
 C          4.3573208405        0.4666701799        0.2377954196
 C          4.4100103402       -0.1556608703       -0.9534062503
 C          5.5861244000       -0.9117619305       -1.5086693805
 C          5.6797302901       -2.3639722004       -1.0207065203
 C          6.1149858305       -2.5340002902        0.4354100896
 H          6.3506522305       -3.5905915701        0.5775777197
 H          7.0323472305       -1.9701151202        0.6073521992
 C          5.0543064208       -2.1228446500        1.4663233398
 H          4.0763067006       -2.0679516300        0.9820543001
 H          4.9829047610       -2.8899963998        2.2407127800
 C          5.3337822010       -0.7945510498        2.1697664195
 H          6.2432275012       -0.8816115698        2.7683933593
 H          4.5023720512       -0.5857865897        2.8478098197
 C          5.4853374208        0.4028946200        1.2225842393
 H          5.4579114010        1.3177522301        1.8194725191
 H          6.4417720006        0.3525876699        0.7025666390
 H          4.7107165100       -2.8462893704       -1.1698791300
 H          6.4062118099       -2.8751900405       -1.6566682104
 H          5.4663716597       -0.9202926506       -2.5942390905
 H          6.5090023601       -0.3847124905       -1.2649380609
 O          3.3675458799       -0.1479843104       -1.8228385600
 C          2.1664774300        0.4765660496       -1.5153500798
 O          1.3080185898        0.3560309195       -2.4135505496
 O          3.0858120510        1.7955185602        1.7265588497
 C          0.7895554505        1.8721047700        0.1149576103
 C         -0.2396093594        0.8946853501        0.6313921808
 C         -0.5995894990        0.8845008203        1.9741011209
 C         -1.5346288289       -0.0197608196        2.4475605213
 C         -2.1303158291       -0.9296182097        1.5930608316
 C         -1.7783168295       -0.9252270699        0.2488428615
 C         -0.8474121596       -0.0121168101       -0.2256388189
 H         -0.5657377299       -0.0263625502       -1.2678468390
 N         -2.3748199498       -1.8440156401       -0.6294713482
 S         -4.0234454198       -2.0916484700       -0.5101512677
 O         -4.2955630795       -3.0352706998        0.5463826026
 O         -4.4485552101       -2.4910070802       -1.8334951075
 C         -4.7120922896       -0.5011844499       -0.0834946477
 C         -4.4544552398        0.5685497499       -0.9179178580
 C         -4.9627587197        1.8136522100       -0.5861634081
 C         -5.7168079593        1.9676230602        0.5672257121
 C         -5.9708707691        0.8828849604        1.3916575824
 C         -5.4628585793       -0.3646706097        1.0662814324
 H         -5.6314326991       -1.2341491196        1.6806853226
 H         -6.5587752189        1.0046458705        2.2870589725
 H         -6.1078150992        2.9396172403        0.8232423621
 H         -4.7655550098        2.6585695399       -1.2261550183
 H         -3.8665875601        0.4182127898       -1.8093883481
 H         -2.0752604401       -1.7455966202       -1.5881575483
 H         -2.8482492091       -1.6517937496        1.9469454919
 H         -1.8004216686       -0.0190774394        3.4934978814
 H         -0.1269613188        1.5812369604        2.6508143706
 H          1.0893682408        2.5136148901        0.9542856601
 C          0.2171880003        2.7517958698       -0.9793412297
 C         -0.7288638296        3.8521667599       -0.6067047596
 C          0.6567844503        4.1807970198       -1.0736049800
 H          0.7847902500        4.6159896396       -2.0534705301
 H          1.3720980405        4.5329293399       -0.3446877403
 H         -1.5553801298        4.0647823098       -1.2668195094
 H         -0.9552918793        3.9831621301        0.4403567505
 H          0.0409966100        2.2271215596       -1.9090448395
