  62
        -98.93739417
 C          0.8285981392        1.5841984040        0.4605314965
 C          1.4252527670        0.9696166179       -0.6684012751
 C          2.4027157243       -0.0952597146       -0.3778765255
 C          2.6798273955       -0.4305112368        0.8936687949
 C          3.5960685853       -1.5302304659        1.3621343956
 C          5.0896270135       -1.3663724520        1.0213229289
 C          5.5237168477       -2.0632973120       -0.2740434773
 H          6.5026375267       -2.5205285171       -0.1161171689
 H          4.8286336085       -2.8769018504       -0.4857859739
 C          5.6456624216       -1.1633437567       -1.5076378242
 H          6.5795169923       -0.5996837482       -1.4476766254
 H          5.7068800061       -1.8079811133       -2.3872182270
 C          4.5154088874       -0.1542741133       -1.7125660282
 H          4.6305737650        0.6741985693       -1.0094522776
 H          4.6158544822        0.2738262664       -2.7120070772
 C          3.0976197109       -0.7340841380       -1.5443573385
 H          3.1336291715       -1.8161588093       -1.4214565219
 H          2.4928738259       -0.5152359217       -2.4275117639
 H          5.3408688654       -0.3066841099        0.9863801552
 H          5.6516192533       -1.8051433949        1.8472614070
 H          3.2347264787       -2.4807079599        0.9618917855
 H          3.4827059063       -1.5598997926        2.4478569431
 O          2.0926321190        0.1930609059        1.9516084421
 C          1.1648771940        1.2029464806        1.7629410756
 O          0.7146057179        1.6816672259        2.8224658161
 O          1.1696814015        1.2640441138       -1.8652755698
 C         -0.2338224202        2.6671161187        0.3752259967
 C         -1.6174623005        2.0648630844        0.2878670070
 C         -2.6433085576        2.5394137157        1.0974097087
 C         -3.9138655201        1.9997947161        1.0152976109
 C         -4.1792926401        0.9630163448        0.1394246433
 C         -3.1602149308        0.4780249122       -0.6721334925
 C         -1.8919507914        1.0374636654       -0.6037014277
 H         -1.1201888689        0.6623167447       -1.2572709339
 N         -3.3997557637       -0.5838780346       -1.5620468894
 S         -2.3310588560       -1.8718369328       -1.5834650610
 O         -1.1239478835       -1.5239421076       -2.2838693855
 O         -3.1009262203       -2.9608342310       -2.1472151216
 C         -1.9936886976       -2.1997113448        0.1367818596
 C         -0.8036112382       -1.7832662403        0.6959571223
 C         -0.5884858876       -1.9966153158        2.0486584954
 C         -1.5631276453       -2.6183430850        2.8132540076
 C         -2.7519956975       -3.0373871518        2.2349664847
 C         -2.9735030035       -2.8234978703        0.8847884734
 H         -3.8782050914       -3.1446112410        0.3945960793
 H         -3.5042178752       -3.5255744193        2.8331973086
 H         -1.3902942568       -2.7765321212        3.8660404226
 H          0.3326418890       -1.6623169198        2.4998509907
 H         -0.0661670875       -1.3018481844        0.0717606058
 H         -4.3523339796       -0.9205823860       -1.5531689879
 H         -5.1665418519        0.5309693441        0.0803727075
 H         -4.7014105151        2.3799513475        1.6474930031
 H         -2.4353653279        3.3302541133        1.8023870389
 H         -0.1737244369        3.2187557202        1.3239461257
 C         -0.0276655074        3.6518579916       -0.7595284849
 C         -0.5759944626        5.0399487767       -0.6311864531
 C          0.9035677308        4.8091754608       -0.5681947577
 H          1.5154601334        5.1188884347       -1.4019268082
 H          1.3937653363        4.9017852152        0.3903436791
 H         -0.9857301797        5.5126066463       -1.5105182174
 H         -1.0856471522        5.2975713219        0.2846882391
 H         -0.0504709599        3.1885848060       -1.7371066953
