  62
        -98.93331840
 C         -2.6439783374       -0.1635111841        0.6267363301
 C         -2.2381727155        0.3581621946       -0.6272559003
 C         -1.9701585147        1.8072732693       -0.6795522134
 C         -2.0359631553        2.5355169440        0.4468074108
 C         -1.8215560383        4.0170284835        0.6321606717
 C         -0.6677012783        4.6726783613       -0.1367709516
 C          0.5750095598        3.7913105442       -0.3327357960
 H          1.4576299433        4.3454854422       -0.0068079535
 H          0.5134308458        2.8900357980        0.2807245650
 C          0.7907539960        3.3817535580       -1.7913567578
 H          0.6074392415        4.2467698258       -2.4339393118
 H          1.8347661239        3.0853830664       -1.9214431286
 C         -0.0642011423        2.2087219827       -2.2680654138
 H          0.2763005696        1.2889464031       -1.7833717525
 H          0.1065256163        2.0801576302       -3.3403383464
 C         -1.5756113237        2.3487951642       -2.0235112069
 H         -1.8997734864        3.3797036773       -2.1498945836
 H         -2.0905327141        1.7278817562       -2.7620963996
 H         -1.0221945198        5.0041086619       -1.1119147072
 H         -0.3916305984        5.5703854307        0.4192955757
 H         -2.7553226470        4.5286327187        0.3795811317
 H         -1.6648049255        4.1461994893        1.7059586011
 O         -2.3661077737        1.9802693524        1.6481346323
 C         -2.6563353388        0.6344242217        1.7710705258
 O         -2.9027509450        0.2704775464        2.9406466897
 O         -2.1212724983       -0.3359892407       -1.6693432337
 C         -2.8831113896       -1.6525190856        0.8372154926
 C         -1.6938894491       -2.3846780878        0.2672579026
 C         -1.7522590799       -3.3274681615       -0.7491355256
 C         -0.5881624255       -3.8586315398       -1.2796749693
 C          0.6530323323       -3.4543336083       -0.8205172724
 C          0.7165769701       -2.5331911251        0.2134100262
 C         -0.4460646457       -2.0227733550        0.7600381390
 H         -0.3846184831       -1.2799757719        1.5480059681
 N          1.9894332168       -2.0439495790        0.6477133646
 S          2.2509394287       -0.5177817896       -0.0480311709
 O          1.5002849054        0.4947823236        0.6659847003
 O          2.0163862791       -0.6322656666       -1.4638229845
 C          3.9957950954       -0.2998034117        0.2488909549
 C          4.4399011735        0.6833321321        1.1103760944
 C          5.8020820578        0.8110415356        1.3363595524
 C          6.6898656699       -0.0450380230        0.7034374807
 C          6.2277903482       -1.0289007143       -0.1587211528
 C          4.8682874794       -1.1597294003       -0.3901865430
 H          4.4614706867       -1.9031937070       -1.0550363396
 H          6.9215198964       -1.6923095897       -0.6494530394
 H          7.7486952508        0.0559981140        0.8821964716
 H          6.1630487757        1.5763076204        2.0045975109
 H          3.7123236979        1.3268283556        1.5789496849
 H          1.9979737172       -1.9049874114        1.6513721657
 H          1.5648637883       -3.8260241219       -1.2581315140
 H         -0.6498955234       -4.5777991758       -2.0822773465
 H         -2.7086031747       -3.6154309846       -1.1547433425
 H         -2.8670367511       -1.7837359561        1.9323490435
 C         -4.2269999326       -2.1776390902        0.3617694063
 C         -5.4271970610       -1.2801177732        0.3217706146
 C         -4.8348148116       -1.7967816490       -0.9530966336
 H         -5.3806647314       -2.5533821653       -1.4979308721
 H         -4.2822821720       -1.1175570202       -1.5814875697
 H         -6.3767732436       -1.6756718205        0.6495558157
 H         -5.2760134724       -0.2392771410        0.5703093820
 H         -4.4001005567       -3.1950281574        0.6997033398
