  62
        -98.93988584
 C         -1.4692863271       -1.6684205954       -0.2385895102
 C         -2.6779515112       -1.4301165529        0.4637131940
 C         -3.4999034999       -0.3089101210       -0.0131038787
 C         -3.0707068592        0.4162583851       -1.0617874877
 C         -3.7285164921        1.6596025492       -1.5888299690
 C         -3.4048682214        2.8503083830       -0.6630591341
 C         -4.6199513238        3.4362487832        0.0560354438
 H         -4.2487719794        4.1144543141        0.8271978328
 H         -5.2013787961        4.0298840695       -0.6525674098
 C         -5.5662397153        2.4195646374        0.7020104701
 H         -6.2131794582        2.9760454866        1.3835725363
 H         -6.2174272622        1.9875796042       -0.0594707722
 C         -4.8976094243        1.2789787097        1.4804754332
 H         -5.4964819024        1.0808566567        2.3718006577
 H         -3.9063523153        1.5753501593        1.8241270074
 C         -4.7933369949       -0.0501263078        0.7086096381
 H         -4.8855869178       -0.8743458552        1.4219551076
 H         -5.6265838790       -0.1300609189        0.0049660224
 H         -2.6713632075        2.5189402380        0.0749931894
 H         -2.9355326342        3.6457741893       -1.2440142122
 H         -3.3384386579        1.8378814696       -2.5912162870
 H         -4.8032829984        1.5075048867       -1.6572265434
 O         -1.9166021734        0.1449388162       -1.7221622834
 C         -1.0851116345       -0.8961004566       -1.3339960615
 O         -0.0668927073       -1.0146801872       -2.0418081054
 O         -3.0481729297       -2.1228276742        1.4483821115
 C         -0.5468626892       -2.7612131903        0.2797367547
 C          0.6643264613       -2.0606256058        0.8424915300
 C          0.6094721656       -1.5214150297        2.1252759603
 C          1.6541197675       -0.7625092822        2.6190498082
 C          2.7637347254       -0.4998186314        1.8337397802
 C          2.8210349065       -1.0258127108        0.5503568149
 C          1.7917241817       -1.8246505839        0.0715649929
 H          1.8516739514       -2.2191116755       -0.9299190558
 N          3.9131579649       -0.7109111485       -0.2791136296
 S          4.3541073172        0.9028273416       -0.3419529466
 O          4.8988833123        1.1025849531       -1.6672391120
 O          5.2562103272        1.1900036246        0.7474494473
 C          2.8579518048        1.8582913198       -0.1312684865
 C          2.8408192558        2.8670312523        0.8114537864
 C          1.6919514374        3.6254466360        0.9663611646
 C          0.5809006167        3.3622117832        0.1801517956
 C          0.6137617050        2.3465280221       -0.7621979328
 C          1.7611945017        1.5864570334       -0.9246498051
 H          1.7849991487        0.7853517076       -1.6468639730
 H         -0.2492913748        2.1268211806       -1.3711390639
 H         -0.3158110727        3.9500707845        0.3004682987
 H          1.6652159566        4.4160071323        1.6989431132
 H          3.7248704582        3.0326694531        1.4056818591
 H          3.8255490058       -1.0893866073       -1.2116123344
 H          3.5786600430        0.1094441707        2.1902855954
 H          1.5997858695       -0.3573886717        3.6179160679
 H         -0.2743992189       -1.6904969535        2.7241015470
 H         -1.0903323722       -3.2378904627        1.1057308457
 C         -0.2329000421       -3.8079353539       -0.7669667952
 C          0.3892099690       -5.1033294370       -0.3413444087
 C         -1.0364022121       -5.0719559650       -0.8015280465
 H         -1.2788904613       -5.5014270275       -1.7620651708
 H         -1.8153603771       -5.1896539001       -0.0626339777
 H          1.1278895616       -5.5577532378       -0.9838399331
 H          0.5792565080       -5.2408465579        0.7123515222
 H          0.0665796784       -3.3912362405       -1.7206951834
