  62
        -98.93718277
 C         -2.5719856943       -1.2497103209       -0.3368833699
 C         -2.0175234082       -0.0126724143       -0.7546011033
 C         -2.9590161032        1.1172164683       -0.8386735593
 C         -4.2561893138        0.9288499496       -0.5412713055
 C         -5.3033511506        2.0034919234       -0.5324894926
 C         -5.4245305270        2.6455206885        0.8566406665
 C         -4.0851375619        3.0633115301        1.4643774321
 H         -4.2973573637        3.5317323759        2.4279731227
 H         -3.4886888006        2.1705055393        1.6679228967
 C         -3.2671000566        4.0296096508        0.5963301022
 H         -3.9139279602        4.4979572931       -0.1465989452
 H         -2.8748403092        4.8252636778        1.2332411244
 C         -2.0671830128        3.3922757335       -0.1071992791
 H         -1.4597442821        2.8463465007        0.6204381358
 H         -1.4446921709        4.1958258283       -0.5103415665
 C         -2.4002035164        2.4450114924       -1.2667679764
 H         -3.0768795109        2.9417123528       -1.9651403582
 H         -1.4655608804        2.2230719728       -1.7901300761
 H         -6.0775173763        3.5166267634        0.7788689218
 H         -5.8956340925        1.9264036503        1.5307252885
 H         -5.0483635631        2.7592478642       -1.2727054793
 H         -6.2609240705        1.5533832699       -0.7995653772
 O         -4.7554202815       -0.2737757099       -0.1587259449
 C         -3.9290951377       -1.3753320418       -0.0202995923
 O         -4.5146412414       -2.3999680291        0.3832208862
 H          0.8351075090       -1.8936319703       -0.8466614947
 C          0.6899025074       -1.8482486338        0.2212789461
 C         -0.5522645488       -2.1493512965        0.7550422369
 C         -0.7309891464       -2.0533082467        2.1314618121
 C          0.3118770568       -1.6667840137        2.9530859286
 C          1.5480323411       -1.3533824069        2.4161725844
 C          1.7298251786       -1.4317829312        1.0422069528
 N          2.9781962321       -1.0954166922        0.4854078414
 S          3.7345285144        0.2816006835        1.1098323054
 O          4.5088567583       -0.1159667788        2.2612119206
 O          2.7724173263        1.3353418696        1.3383841360
 C          4.8260284494        0.7127989889       -0.2311310093
 C          6.1252636105        0.2430969972       -0.2285126456
 C          6.9554462183        0.5654893440       -1.2905528099
 C          6.4744568557        1.3456180608       -2.3312831027
 C          5.1670393991        1.8089292539       -2.3201868369
 C          4.3311931364        1.4898942360       -1.2617631607
 H          3.3098789645        1.8340980078       -1.2090411181
 H          4.7955101746        2.4160385921       -3.1300672301
 H          7.1221337759        1.5969326481       -3.1562938796
 H          7.9726613411        0.2088275169       -1.3027280733
 H          6.4551207946       -0.3534127867        0.6059024067
 H          2.9292833532       -1.0465569378       -0.5235891686
 H          2.3653676264       -1.0263043489        3.0393280721
 H          0.1600556680       -1.5981129827        4.0201127740
 H         -1.7042638808       -2.2726682948        2.5497872367
 C         -1.7286588683       -2.4978634121       -0.1213939966
 H         -2.3805858897       -3.1822088797        0.4440878599
 C         -1.3279643104       -3.2353086306       -1.3903628144
 C         -2.3268274550       -3.4351792252       -2.4903841144
 C         -1.1298235605       -2.5632636357       -2.7139785445
 H         -0.3432722276       -2.9326937230       -3.3560955876
 H         -1.2721390537       -1.4961364935       -2.7692232972
 H         -2.3688642562       -4.3946040728       -2.9833041640
 H         -3.2903264772       -2.9601607133       -2.3731659151
 H         -0.6757625460       -4.0755727345       -1.1712306118
 O         -0.8093172070        0.1631325750       -1.0581885811
