  62
        -98.94360075
 C          1.7898278106       -0.9148108141       -0.7920907273
 C          1.9718408218       -0.3761310914        0.5044797880
 C          3.3629280081       -0.3056367402        0.9754333824
 C          4.3519885966       -0.7591283974        0.1839166762
 C          5.8140957823       -0.6948848024        0.5165694371
 C          6.4456046326        0.6026881063       -0.0070807017
 C          5.6607959872        1.8628127607        0.3581509847
 H          6.2154298123        2.7168587977       -0.0367586132
 H          4.6954790705        1.8429926934       -0.1530589211
 C          5.4312586673        2.0539930795        1.8638781840
 H          6.1317766343        1.4358526678        2.4265904500
 H          5.6397750400        3.0949104138        2.1200067576
 C          4.0048147247        1.7572924203        2.3304831280
 H          3.2931916980        2.3030646960        1.7055749370
 H          3.8973892063        2.1313795060        3.3520941496
 C          3.6004413310        0.2777139678        2.3398271932
 H          4.3459172217       -0.3045931120        2.8850501283
 H          2.6459120388        0.1983746372        2.8679282479
 H          6.5084511627        0.5423028149       -1.0961705121
 H          7.4605685974        0.6766340530        0.3876781945
 H          6.3115285639       -1.5454245308        0.0474559860
 H          5.9395522208       -0.7627783737        1.5953561356
 O          4.1339122468       -1.2893207416       -1.0473408919
 C          2.8538361460       -1.3671063525       -1.5713332295
 O          2.7952416277       -1.8479152181       -2.7216855220
 O          1.0262318151        0.0253374510        1.2304681163
 C          0.3919028033       -1.0088967446       -1.3764979047
 C         -0.2441636905        0.3595104972       -1.4051361135
 C          0.4715104201        1.4241073246       -1.9479068847
 C         -0.0687520637        2.6945404910       -1.9790159698
 C         -1.3367593192        2.9304698272       -1.4767302200
 C         -2.0633262395        1.8743165033       -0.9410657317
 C         -1.5170170587        0.5977211232       -0.9135554034
 H         -2.0977969572       -0.2100275101       -0.5031990207
 N         -3.3321131417        2.0908514696       -0.3925940852
 S         -4.5080991381        0.9099559187       -0.3818549476
 O         -4.5274782336        0.1599455093       -1.6163705024
 O         -5.7263750504        1.6228939408       -0.0606271544
 C         -4.0803629808       -0.1569728819        0.9779512219
 C         -3.5440838783        0.3908499681        2.1259114297
 C         -3.2349271257       -0.4475088202        3.1849012215
 C         -3.4711148646       -1.8097761208        3.0821008729
 C         -4.0177832063       -2.3435840443        1.9254681918
 C         -4.3274296046       -1.5107024816        0.8620472077
 H         -4.7442702827       -1.8833476663       -0.0604957574
 H         -4.2003031395       -3.4037610001        1.8476183319
 H         -3.2250821080       -2.4597911315        3.9070398123
 H         -2.8046866805       -0.0366654984        4.0840340486
 H         -3.3637369466        1.4517821771        2.1720404671
 H         -3.7065347131        3.0213215879       -0.4974995161
 H         -1.7575274419        3.9242863445       -1.4942681626
 H          0.5001417702        3.5104627463       -2.3994042024
 H          1.4627186442        1.2399327899       -2.3408062444
 H          0.5157241729       -1.3492895357       -2.4152478078
 C         -0.4189642406       -2.0396982882       -0.6188919396
 C         -1.5343628893       -2.7728288851       -1.2992235604
 C         -0.2588382379       -3.4870918300       -0.9700363003
 H         -0.2661199653       -4.2149095160       -0.1728700543
 H          0.4178743365       -3.7293586050       -1.7767967833
 H         -2.4176105487       -3.0103517096       -0.7261368846
 H         -1.7349419350       -2.5328800490       -2.3327091368
 H         -0.5365337353       -1.7889616755        0.4294306460
