  62
        -98.93885050
 C         -1.8744813997       -0.4443872600       -0.0057958894
 C         -2.9623539297       -0.5595029498        0.8938287707
 C         -4.1940600295        0.1825519706        0.5650847809
 C         -4.2106033093        0.9446648308       -0.5442184590
 C         -5.3497944091        1.7546098612       -1.1034821388
 C         -6.4117246394        0.8833551916       -1.7934954689
 C         -6.8050976198       -0.3771040584       -1.0278035990
 H         -7.4803849900       -0.9546997181       -1.6645544590
 H         -5.9158210099       -0.9875894887       -0.8614990492
 C         -7.5116454096       -0.1352201483        0.3039114111
 H         -8.4158955794        0.4519055319        0.1283785012
 H         -7.8194530499       -1.1106900483        0.6891626310
 C         -6.6818031493        0.5605594813        1.3852931711
 H         -7.2127281393        0.4351597513        2.3335643711
 H         -6.6207944690        1.6308197313        1.2066741412
 C         -5.2854850194       -0.0189669692        1.5886274109
 H         -4.8800508193        0.3717885006        2.5298245009
 H         -5.3646118498       -1.1018024692        1.7379698508
 H         -7.2972837893        1.4958214919       -1.9713188587
 H         -6.0155455396        0.5735284916       -2.7636650589
 H         -5.7957284989        2.3628446912       -0.3221906287
 H         -4.9190337690        2.4306606412       -1.8455142788
 O         -3.1314487394        1.0444959505       -1.3704078491
 C         -1.9470609395        0.3704422702       -1.1346372093
 O         -1.0687238096        0.5796978300       -1.9945016493
 H          1.2146167004        0.2435579292       -1.1081675696
 C          1.2927460906        0.4252300690       -0.0476379195
 C          0.4355442204       -0.2288702408        0.8251915504
 C          0.5313319306        0.0485016290        2.1851098305
 C          1.4623503609        0.9555782986        2.6584524105
 C          2.3135297011        1.6091568185        1.7845695805
 C          2.2167577409        1.3465328387        0.4246780505
 N          3.0832222210        2.0103441085       -0.4724067595
 S          4.7091131609        1.6403926880       -0.3080718196
 O          5.1948513712        2.2022892977        0.9266062104
 O          5.3454153110        2.1072763980       -1.5186872396
 C          4.7497550004       -0.1405660520       -0.2289757299
 C          4.8024563201       -0.8530858019       -1.4102870800
 C          4.7509098996       -2.2365826718       -1.3615396002
 C          4.6329994795       -2.8796033620       -0.1388073502
 C          4.5773119599       -2.1491558521        1.0379940499
 C          4.6356270903       -0.7654309721        0.9966497400
 H          4.6007135205       -0.1628954622        1.8892581201
 H          4.4855357498       -2.6517771522        1.9873479398
 H          4.5843989692       -3.9565336020       -0.1030320504
 H          4.7981622994       -2.8072779117       -2.2753670503
 H          4.8964045202       -0.3142008818       -2.3396778599
 H          2.8051949709        1.8933663188       -1.4370119095
 H          3.0530901913        2.3120989182        2.1328584306
 H          1.5258977811        1.1575333585        3.7169963105
 H         -0.1423872595       -0.4497022009        2.8677383905
 C         -0.6015931499       -1.2048587904        0.3277057804
 H         -0.8724779900       -1.8623771905        1.1643163303
 C         -0.1023244403       -2.0565395804       -0.8219950398
 C          1.0024203695       -3.0371822808       -0.5680766200
 C         -0.3894324007       -3.5267436104       -0.8292597699
 H         -0.6007905509       -4.0042523202       -1.7743209400
 H         -0.9531674208       -3.9308893603       -0.0013407999
 H          1.7520988594       -3.1775651009       -1.3311757601
 H          1.3850111795       -3.1023602211        0.4390884500
 H         -0.1155946202       -1.5465545303       -1.7768284597
 O         -2.9156208398       -1.2671161500        1.9356450906
