  62
        -98.93538017
 C         -2.7094655007       -0.8689396150       -0.2975110662
 C         -2.0905995251        0.1558486411       -1.0505048951
 C         -2.5213096355        1.5391677153       -0.7676825027
 C         -3.5058152157        1.7622464050        0.1216083375
 C         -4.1849345134        3.0398856753        0.5703027714
 C         -3.6091315430        4.4010936749        0.1911064067
 C         -2.2865737793        4.7473901001        0.8783354328
 H         -1.8813039571        5.6492058942        0.4150022986
 H         -2.4938009413        4.9767586276        1.9266235747
 C         -1.2204791996        3.6542060829        0.8569419877
 H         -0.3646677386        4.0014865832        1.4425715686
 H         -1.5980401590        2.7590201690        1.3561852580
 C         -0.6987475275        3.2638142687       -0.5238043591
 H          0.1145382743        2.5478353567       -0.3673165428
 H         -0.2844681711        4.1431018458       -1.0220714327
 C         -1.7329346190        2.6151024359       -1.4573497333
 H         -1.1930374387        2.1253215393       -2.2729283062
 H         -2.3865889931        3.3623333562       -1.8995115870
 H         -4.3450418524        5.1485451987        0.4993768897
 H         -3.5168588470        4.4790255886       -0.8882003604
 H         -5.2094113943        2.9776408105        0.1870895475
 H         -4.2607149950        2.9728181998        1.6603516686
 O         -4.1240769182        0.7332628740        0.7739098752
 C         -3.7174588924       -0.5777537453        0.6246939118
 O         -4.3339190068       -1.3875879116        1.3461225321
 O         -1.2168035045       -0.0445012692       -1.9365569365
 C         -2.2903893292       -2.3309969676       -0.3782461996
 C         -0.9893495993       -2.4880348232        0.3725602776
 C         -0.9639804476       -3.0536225393        1.6424950469
 C          0.2136923618       -3.1077118063        2.3680284452
 C          1.3869236356       -2.5864886450        1.8509077394
 C          1.3681580786       -2.0156868326        0.5859074928
 C          0.1949138941       -1.9898265124       -0.1515346416
 H          0.1881102683       -1.5220666739       -1.1242729439
 N          2.5503774569       -1.4347296669        0.0588314318
 S          2.9876759745       -0.0091553901        0.8648883730
 O          3.3797329851       -0.3548469255        2.2079601493
 O          1.9397731743        0.9816325831        0.7448198164
 C          4.4163305454        0.4858726348       -0.0782203603
 C          4.2590533780        1.3814714711       -1.1183057251
 C          5.3678597686        1.7360659530       -1.8706838687
 C          6.6066184495        1.1879429896       -1.5740132574
 C          6.7479547337        0.2889840886       -0.5272647625
 C          5.6436554790       -0.0686102002        0.2295803786
 H          5.7057410201       -0.7560925571        1.0566240555
 H          7.7132648395       -0.1332880376       -0.2992634129
 H          7.4673889615        1.4656122349       -2.1616074272
 H          5.2603228135        2.4363738397       -2.6833811827
 H          3.2782138706        1.7883456160       -1.3088265648
 H          2.4092628127       -1.1919562723       -0.9153799117
 H          2.3019918881       -2.5880176756        2.4200188305
 H          0.2155141333       -3.5493169426        3.3533280760
 H         -1.8837054908       -3.4282689607        2.0693121210
 H         -3.0633937953       -2.8918499442        0.1633649322
 C         -2.2175121348       -2.8590958411       -1.7963735572
 C         -2.2375196901       -4.3405614582       -2.0186824444
 C         -3.4262823759       -3.5096943665       -2.3957176854
 H         -3.6324767647       -3.3457048183       -3.4427130647
 H         -4.3130111275       -3.5776191684       -1.7821661537
 H         -1.6260597464       -4.7512317404       -2.8072914408
 H         -2.3182479712       -4.9742493861       -1.1483949702
 H         -1.6052136332       -2.2570607926       -2.4538982886
