  62
        -98.93977994
 C         -1.7257304003       -1.3031657392        0.5100143208
 C         -1.5416636300       -0.2434921800       -0.4138424002
 C         -2.7652702799        0.2649363695       -1.0582294109
 C         -3.9547970700       -0.2831243600       -0.7550195205
 C         -5.2772590599        0.1732529896       -1.2978648912
 C         -5.9146824999        1.2306115606       -0.3857697222
 C         -4.9653158898        2.3642415008        0.0028774169
 H         -5.5312035398        3.0654376014        0.6201135361
 H         -4.1636905699        1.9626457513        0.6273941274
 C         -4.3500030195        3.1133724596       -1.1874265437
 H         -4.9342924694        2.9216082688       -2.0882289937
 H         -4.4012471094        4.1862791698       -0.9902244748
 C         -2.8809603595        2.7813417792       -1.4573289832
 H         -2.4911622393        3.5159039485       -2.1675009738
 H         -2.3028316196        2.8857398200       -0.5349333732
 C         -2.6066591296        1.3900344386       -2.0418657019
 H         -1.5598124695        1.3689143082       -2.3593197817
 H         -3.2361975795        1.2288375779       -2.9195655118
 H         -6.7881872397        1.6437365402       -0.8933347228
 H         -6.2536850601        0.7398186915        0.5294629782
 H         -5.9416601500       -0.6904904203       -1.3569688005
 H         -5.1341738697        0.5788865087       -2.2974141715
 O         -4.0925546603       -1.2980627692        0.1353261304
 C         -2.9943199304       -1.8116963287        0.8045948110
 O         -3.2736099607       -2.7076460479        1.6261881118
 O         -0.4259270699        0.2561786995       -0.7051257805
 C         -0.5685285505       -1.9032950286        1.2921187315
 C          0.2378501695       -0.8060276181        1.9408538206
 C         -0.2997583606       -0.1602977070        3.0511290999
 C          0.4005876595        0.8392700935        3.6977459091
 C          1.6500743196        1.2189946330        3.2408883789
 C          2.1894560097        0.5948503518        2.1234937796
 C          1.4872677096       -0.4171795087        1.4817982904
 H          1.9127274197       -0.8876568695        0.6108240209
 N          3.4659838198        0.9565545612        1.6447327195
 S          3.5551873901        1.6505804998        0.1116779488
 O          4.8246541002        2.3518266796        0.1195116984
 O          2.3953757203        2.4639582897       -0.1674535221
 C          3.6803265301        0.2803266887       -1.0134192599
 C          2.6423449102       -0.0051993019       -1.8764545598
 C          2.7976580502       -1.0474681928       -2.7781506388
 C          3.9722264901       -1.7837646530       -2.7927935179
 C          5.0000192000       -1.4892812423       -1.9089251980
 C          4.8576034600       -0.4428379914       -1.0128740190
 H          5.6363777499       -0.1657132709       -0.3219904892
 H          5.9095894899       -2.0679961324       -1.9203283574
 H          4.0849172501       -2.5936268736       -3.4967158871
 H          1.9961596403       -1.2811197133       -3.4610541987
 H          1.7308918603        0.5672362182       -1.8093684804
 H          3.9780199398        1.5445335818        2.2891423990
 H          2.2036164396        2.0002948533        3.7410026683
 H         -0.0274643506        1.3274157444        4.5605576786
 H         -1.2792387707       -0.4567926165        3.4023779100
 H         -1.0493241107       -2.4773825778        2.1011110620
 C          0.2830971395       -2.8951159494        0.5146818326
 C         -0.3738126705       -3.9131260701       -0.3690024266
 C          0.4761565197       -2.8354845108       -0.9683291675
 H          1.4444432297       -3.1061715313       -1.3626860871
 H         -0.0072086101       -2.0382507213       -1.5090470883
 H          0.0023754593       -4.9247950802       -0.3599671956
 H         -1.4458323805       -3.8459341101       -0.4872481168
 H          1.1290348293       -3.2406251690        1.1010667630
