  62
        -98.93562840
 C         -1.8698517652       -0.5009093727        0.8387159595
 C         -2.7968213011       -1.1271452708       -0.0295892532
 C         -4.1733333988       -0.6027238643        0.0059510779
 C         -4.4756299924        0.4118961177        0.8345031880
 C         -5.8054041559        1.1056055110        0.9199504938
 C         -5.9673369612        2.0816307030       -0.2629832941
 C         -7.0806911992        1.7076425488       -1.2419659459
 H         -8.0449213992        1.9592030619       -0.7952017312
 H         -6.9570126859        2.3306777150       -2.1303709516
 C         -7.1308421902        0.2368754670       -1.6669329256
 H         -7.6113530986       -0.3542832120       -0.8859351701
 H         -7.7808689407        0.1817773047       -2.5427886399
 C         -5.7828504615       -0.4089235508       -2.0123979938
 H         -5.9318769804       -1.0650010908       -2.8723496007
 H         -5.0589851790        0.3488758908       -2.3130286254
 C         -5.1798141965       -1.2726051655       -0.8887149812
 H         -5.9843224447       -1.6948796428       -0.2804911441
 H         -4.6381210826       -2.1071727874       -1.3430964049
 H         -6.1695230640        3.0840196230        0.1177125004
 H         -5.0150071789        2.1352709869       -0.7949710147
 H         -6.6056345971        0.3688334534        0.9212234678
 H         -5.8281261472        1.6478556479        1.8655029400
 O         -3.5595755694        0.9869297440        1.6568180045
 C         -2.2476888828        0.5488895798        1.6810246242
 O         -1.5221064606        1.1609888174        2.4915504563
 O         -2.5153590785       -2.0792335912       -0.8035596297
 C         -0.4088440864       -0.9162708375        0.9356235063
 C          0.3971594232       -0.3197345217       -0.1936833317
 C          0.1881777447       -0.6937664885       -1.5178370467
 C          0.9301908558       -0.1192324563       -2.5328180099
 C          1.9060062139        0.8206815394       -2.2493313942
 C          2.1236471720        1.2007315290       -0.9311162279
 C          1.3654286130        0.6343995917        0.0852538067
 H          1.5349596730        0.9534094492        1.1030602714
 N          3.1103009927        2.1530826185       -0.6088109774
 S          4.2892010353        1.7282278228        0.5017960913
 O          3.7064684944        1.5711751710        1.8090708283
 O          5.3086773603        2.7447560226        0.3684768354
 C          4.9048629223        0.1652155241       -0.0976169805
 C          4.2592274887       -0.9982613711        0.2700381556
 C          4.6886921894       -2.2007407987       -0.2685327314
 C          5.7513708052       -2.2193852047       -1.1586394523
 C          6.3928617528       -1.0424534021       -1.5144388307
 C          5.9631589422        0.1637103028       -0.9854197565
 H          6.4347417726        1.1016055998       -1.2307446275
 H          7.2215092300       -1.0608126368       -2.2038332589
 H          6.0816992189       -3.1576560053       -1.5755614369
 H          4.1874638205       -3.1142711454        0.0081821414
 H          3.4386357157       -0.9459610948        0.9663602266
 H          3.5441063070        2.5766035382       -1.4173486574
 H          2.4888381681        1.2648327303       -3.0422137426
 H          0.7525522330       -0.4120023575       -3.5564068297
 H         -0.5764133237       -1.4207900147       -1.7429118921
 H         -0.0423141317       -0.4745602199        1.8726329963
 C         -0.2229267573       -2.4191166880        1.0139069233
 C          0.9850738689       -2.9680971720        1.7085254885
 C         -0.3681968035       -3.1013849025        2.3391278812
 H         -0.8339309559       -4.0748195747        2.3692472163
 H         -0.5945173131       -2.4833397747        3.1965084908
 H          1.4522792657       -3.8540640287        1.3072871224
 H          1.6752261103       -2.2638353185        2.1496661615
 H         -0.5903927983       -2.9469981186        0.1445794952
