  62
        -98.93996097
 C         -2.7325609122       -0.6357750233        0.1405387901
 C         -2.8085968087        0.3881893275        1.1144659413
 C         -3.1932516604        1.7146600130        0.6206194923
 C         -3.4661313603        1.8862775198       -0.6859944487
 C         -3.8922401727        3.1735239831       -1.3383530563
 C         -2.7250529170        4.0935935626       -1.7222497010
 C         -2.0251392884        4.7812469605       -0.5492858188
 H         -1.3753682113        5.5506648509       -0.9706435695
 H         -2.7674189894        5.2851967328        0.0703590072
 C         -1.1776095850        3.8422898589        0.3207751962
 H         -0.9893937849        2.9140285281       -0.2244375609
 H         -0.2061228841        4.3025369107        0.5146578947
 C         -1.7983555181        3.5044310155        1.6767236672
 H         -1.8735111041        4.4108315317        2.2812986434
 H         -1.1338883137        2.8085696322        2.1961800066
 C         -3.1871434912        2.8569054242        1.5914871435
 H         -3.4413748907        2.4584586753        2.5767549445
 H         -3.9328673130        3.6002809498        1.3114045711
 H         -1.9963378677        3.5125270111       -2.2922929074
 H         -3.1238787442        4.8666266031       -2.3829750515
 H         -4.4263011189        2.8972728183       -2.2499490195
 H         -4.5789287979        3.7077928497       -0.6813241828
 O         -3.3966076111        0.8720603700       -1.5883756505
 C         -2.9953120073       -0.4015175220       -1.2095537958
 O         -2.9211922396       -1.2148707280       -2.1490619655
 O         -2.5579921321        0.2041065481        2.3370255482
 C         -2.2911022924       -2.0227257728        0.5705660090
 C         -0.9625011851       -2.3565110894       -0.0651082532
 C         -0.6996299015       -3.5557115223       -0.7123351289
 C          0.5459785701       -3.7917808226       -1.2698391751
 C          1.5520871196       -2.8467805075       -1.1956729379
 C          1.3048193535       -1.6480840990       -0.5378200058
 C          0.0590525574       -1.4178449968        0.0248052171
 H         -0.1323099701       -0.4844449016        0.5414064991
 N          2.3139345233       -0.6603480663       -0.4657689682
 S          3.7638958473       -1.1055148422        0.2842641236
 O          4.4018450624       -2.1243991958       -0.5077302587
 O          3.5235368396       -1.4383065538        1.6727811564
 C          4.6739872464        0.4208039682        0.1647240344
 C          5.3626303063        0.6937882005       -1.0014621421
 C          6.0451683723        1.8948956337       -1.1100066749
 C          6.0264014505        2.7980661357       -0.0575068918
 C          5.3314386682        2.5093407464        1.1072763542
 C          4.6461534585        1.3099890804        1.2218851337
 H          4.1013202839        1.0406021384        2.1128717880
 H          5.3205901378        3.2119099587        1.9250588862
 H          6.5587613878        3.7321047803       -0.1439700878
 H          6.5887777674        2.1224232867       -2.0127541699
 H          5.3548479059       -0.0408997958       -1.7894620439
 H          1.9686539055        0.1713135914       -0.0028477676
 H          2.5248560907       -3.0264207636       -1.6224563716
 H          0.7345269413       -4.7267933561       -1.7755791781
 H         -1.4701417201       -4.3053851854       -0.7857608358
 H         -2.1345780438       -1.9539251800        1.6580982714
 C         -3.3740881802       -3.0444608288        0.2999773903
 C         -3.4774601903       -4.2751570970        1.1488745469
 C         -4.4967552627       -3.1851063772        1.2823587169
 H         -5.4930605725       -3.3590085028        0.9047281396
 H         -4.4669585001       -2.5603585535        2.1632937505
 H         -3.7769685429       -5.2009012978        0.6812433574
 H         -2.7571674991       -4.3956598878        1.9440868520
 H         -3.6186939398       -3.1239907611       -0.7530104151
