  62
        -98.94432743
 C         -2.3702353671       -1.1326052943        0.2100656923
 C         -2.3741359204        0.1683034137       -0.3491309902
 C         -3.3793225801        1.0952791292        0.1932028634
 C         -4.1977688077        0.6836310315        1.1783045699
 C         -5.3003960706        1.5046749501        1.7799598269
 C         -6.6257991537        1.2843574067        1.0371864937
 C         -6.5102739996        1.4066630085       -0.4821613237
 H         -5.8864210588        0.5929928784       -0.8589253053
 H         -7.5103193420        1.2638195789       -0.8970334715
 C         -5.9413573828        2.7465815166       -0.9693877093
 H         -6.5492387443        3.1033117342       -1.8034767869
 H         -6.0126718286        3.4907254094       -0.1753602925
 C         -4.4970091382        2.6777104391       -1.4690637538
 H         -4.2698041328        3.6145419907       -1.9849754215
 H         -4.3998902349        1.8705996449       -2.1995878459
 C         -3.4262235735        2.4804367289       -0.3882969330
 H         -3.5570376900        3.2248425220        0.3999554592
 H         -2.4487022868        2.6438850781       -0.8523675460
 H         -7.3532902652        2.0085110465        1.4081487846
 H         -6.9920211149        0.2826186315        1.2730357518
 H         -5.4232929972        1.2036676252        2.8216527174
 H         -5.0227205298        2.5563986487        1.7465346951
 O         -4.1420459772       -0.5627405918        1.7123734891
 C         -3.2333142942       -1.4965152432        1.2466630696
 O         -3.2898903539       -2.5997609961        1.8251641518
 O         -1.5908305513        0.5460321385       -1.2606956957
 C         -1.3812747994       -2.1896333151       -0.2577271246
 C          0.0019663525       -1.7523795934        0.1582638467
 C          0.4018606317       -1.9450945765        1.4780789999
 C          1.6353176021       -1.4995301093        1.9130677142
 C          2.4924106848       -0.8437898046        1.0454319064
 C          2.0947630361       -0.6304485198       -0.2667104395
 C          0.8635740197       -1.0996307471       -0.7079736649
 H          0.5637872275       -0.9168487784       -1.7274191915
 N          2.9510026626        0.0407560086       -1.1551269974
 S          3.7288488416        1.4322492857       -0.6332561452
 O          2.9716360414        2.1303530745        0.3798043618
 O          4.0254969574        2.1726134914       -1.8405041377
 C          5.2551883440        0.8222398682        0.0548254027
 C          6.0272847856       -0.0226357592       -0.7184043848
 C          7.2219195793       -0.4980542074       -0.2018995150
 C          7.6245136585       -0.1202919506        1.0704756082
 C          6.8405321996        0.7319493951        1.8327159239
 C          5.6436559008        1.2101791526        1.3220826417
 H          4.9988578316        1.8698083908        1.8810968965
 H          7.1549643775        1.0253656791        2.8214422144
 H          8.5544529015       -0.4922374091        1.4706581658
 H          7.8340795878       -1.1611036045       -0.7917503453
 H          5.6804931917       -0.2902794546       -1.7023817245
 H          2.5491173269        0.1792246339       -2.0713789308
 H          3.4502435969       -0.4820270320        1.3816888975
 H          1.9335429426       -1.6599054511        2.9380692873
 H         -0.2771230589       -2.4378745424        2.1605180622
 H         -1.6311111715       -3.1016107703        0.3004671602
 C         -1.5201766320       -2.4727299137       -1.7387433732
 C         -0.8984146295       -3.7105597962       -2.3099300154
 C         -2.3883336946       -3.6081324327       -2.1869592381
 H         -2.9738801938       -3.4842644132       -3.0857248453
 H         -2.8809892522       -4.1918195471       -1.4230151406
 H         -0.4594159108       -3.6612547261       -3.2946752165
 H         -0.3776836893       -4.3647316152       -1.6272555061
 H         -1.5263826414       -1.5782088126       -2.3491570308
