  62
        -98.94119958
 C         -1.6620498515        0.2677157834       -0.2596778127
 C         -2.8032194009        1.0026859681        0.1443650151
 C         -3.9146216124        0.2109439288        0.6963121642
 C         -3.7841783764       -1.1209248979        0.8263327822
 C         -4.8544363346       -2.0460260920        1.3270345332
 C         -5.7133929644       -2.5796360196        0.1719137774
 C         -6.2156552640       -1.4925991560       -0.7783533036
 H         -5.3622547044       -1.0514690374       -1.2983727738
 H         -6.8342956325       -1.9816874194       -1.5339774119
 C         -7.0243538332       -0.3789320512       -0.0985925992
 H         -7.9113804361       -0.1723434694       -0.7012822248
 H         -7.3693599471       -0.7156032058        0.8797101391
 C         -6.2736291987        0.9448647408        0.0573031095
 H         -5.8469893958        1.2394803971       -0.9048177477
 H         -6.9964747199        1.7136526725        0.3433540148
 C         -5.1537103013        0.9571965595        1.1053423175
 H         -5.5351563123        0.5795060159        2.0561181191
 H         -4.8441816429        1.9966136467        1.2481563453
 H         -5.1155140955       -3.2887189233       -0.4052644824
 H         -6.5641676667       -3.1174317990        0.5943216108
 H         -4.3738317598       -2.8872451343        1.8292293455
 H         -5.4793845461       -1.5166763372        2.0436557015
 O         -2.6589771984       -1.7887325682        0.4662881638
 C         -1.5847323443       -1.1192640283       -0.0916297453
 O         -0.6276106910       -1.8581033804       -0.3973212791
 O         -2.9161268902        2.2545305958        0.0594474748
 C         -0.4311678991        0.9059527124       -0.8834391438
 C          0.4841965781        1.4913168426        0.1653553912
 C          0.0893537087        2.5574562857        0.9665236538
 C          0.9602698722        3.0865696573        1.9008679602
 C          2.2411497177        2.5811466117        2.0391539312
 C          2.6440067737        1.5138244448        1.2453705594
 C          1.7590619697        0.9686344251        0.3259176545
 H          2.0704112703        0.1290449873       -0.2766748399
 N          3.9289335374        0.9701740411        1.3726298360
 S          4.7476383901        0.3881830709        0.0357331534
 O          6.1418386871        0.4331937323        0.4222227133
 O          4.3974986237        1.1139634850       -1.1625338246
 C          4.2427497801       -1.3130498039       -0.0920830225
 C          4.3702969345       -2.1173152648        1.0228717270
 C          4.0037978520       -3.4499533945        0.9313720300
 C          3.5207689808       -3.9536974172       -0.2669091182
 C          3.4021963294       -3.1343352537       -1.3782538846
 C          3.7671756404       -1.8003409944       -1.2925813503
 H          3.6858632164       -1.1277323986       -2.1323953511
 H          3.0218503648       -3.5265924310       -2.3078158470
 H          3.2325350047       -4.9907444891       -0.3360789460
 H          4.0928979882       -4.0917256564        1.7931719367
 H          4.7527223182       -1.6908628852        1.9352897029
 H          4.5391376030        1.4563772447        2.0129675550
 H          2.9250188893        3.0066037172        2.7580852368
 H          0.6432511521        3.9118185798        2.5206862723
 H         -0.9062029520        2.9581603743        0.8546757813
 H          0.1127377692        0.0837983404       -1.3684321596
 C         -0.7549461544        1.9471581637       -1.9384237100
 C          0.3299060359        2.3712925841       -2.8807107610
 C         -0.8141787688        1.5404656022       -3.3783075210
 H         -1.5506779535        2.0066083357       -4.0156813318
 H         -0.6263732082        0.5029128967       -3.6144470740
 H          0.3782482865        3.4083618245       -3.1759509807
 H          1.2981709273        1.9035474123       -2.7740553556
 H         -1.4541316761        2.7009073120       -1.6021013830
