  62
        -98.94317862
 C          1.8302434142        0.0714082335        0.3062568700
 C          2.7494115013        0.6598783103       -0.5971932573
 C          4.0244939647       -0.0520458110       -0.7637433339
 C          4.2455251264       -1.2054897012       -0.1095274755
 C          5.4817182505       -2.0580601376       -0.2037622391
 C          6.6247821095       -1.6050981023        0.7150565557
 C          7.3377321164       -0.3229750187        0.2832148643
 H          8.2453158433       -0.2434481804        0.8850030525
 H          7.6454051086       -0.4136248623       -0.7589932808
 C          6.5086552858        0.9555595768        0.4686037346
 H          5.6782297380        0.7553310667        1.1496182875
 H          7.1267733778        1.7254346342        0.9359803667
 C          5.9539137953        1.5446528942       -0.8283075876
 H          6.7794015058        1.8713704110       -1.4645447717
 H          5.3541943977        2.4227133739       -0.5763060184
 C          5.0698877641        0.5818152342       -1.6316067879
 H          4.5554664996        1.1542442118       -2.4070843945
 H          5.6826108139       -0.1824516053       -2.1089320167
 H          6.2309794123       -1.4806593168        1.7265399408
 H          7.3598177451       -2.4129055404        0.7423605279
 H          5.1847548189       -3.0678564417        0.0880686639
 H          5.8315154903       -2.0839098686       -1.2362294448
 O          3.3259475199       -1.7550008216        0.7283904990
 C          2.1176829104       -1.1246325540        0.9709951024
 O          1.3911977319       -1.7202026646        1.7933482380
 H         -1.5337416961       -1.1191048603        0.6466489811
 C         -1.4785653376       -0.5924595699       -0.2947618797
 C         -0.5029397486        0.3748284113       -0.4944396382
 C         -0.4363997019        1.0123679171       -1.7295123163
 C         -1.3248710775        0.6823078775       -2.7359054163
 C         -2.3050542527       -0.2724089561       -2.5287283863
 C         -2.3782900920       -0.9179362643       -1.3007320873
 N         -3.3610457580       -1.8965143885       -1.0611246554
 S         -4.3071087427       -1.7535202099        0.3123089302
 O         -3.5405089673       -2.0791095798        1.4869936735
 O         -5.4614305163       -2.5847337444        0.0496735232
 C         -4.7806521703       -0.0344918813        0.3310058111
 C         -4.0769018321        0.8595958734        1.1114555448
 C         -4.4043814821        2.2048928334        1.0491063915
 C         -5.4232019219        2.6296018482        0.2106719866
 C         -6.1253821334        1.7180269604       -0.5632616845
 C         -5.7993105526        0.3729229450       -0.5084377171
 H         -6.3254966822       -0.3695443380       -1.0863488936
 H         -6.9208292222        2.0516219599       -1.2099224476
 H         -5.6721370976        3.6778727961        0.1631640531
 H         -3.8601208738        2.9148401604        1.6512206966
 H         -3.2950304454        0.4863411271        1.7530514200
 H         -3.9413985383       -2.0967871996       -1.8634803351
 H         -3.0005306589       -0.5268637033       -3.3142399717
 H         -1.2575513294        1.1787475392       -3.6919601156
 H          0.3377174529        1.7425598716       -1.9035969808
 C          0.4717113053        0.6837772528        0.6171499760
 H          0.1182963342        0.1667362899        1.5198834292
 C          0.5507587367        2.1676068421        0.9157157888
 C         -0.5274885498        2.8011645455        1.7394563943
 C          0.8430804071        2.6123564845        2.3158188863
 H          1.4696390949        3.4796079594        2.4607935271
 H          0.9808873305        1.8457607829        3.0653541545
 H         -0.8461941394        3.8010985366        1.4892366304
 H         -1.3165165493        2.1603300321        2.1029282655
 H          0.9842315201        2.7498071198        0.1142577464
 O          2.5427394643        1.7211694736       -1.2403365590
