  62
        -98.93988141
 C         -1.7301751467       -1.3025191351        0.3402658508
 C         -1.5767790550       -0.1370359771       -0.4462056199
 C         -2.3806051003        1.0327329901       -0.0411392921
 C         -3.1770024908        0.9388347397        1.0377942688
 C         -4.1061126228        1.9857382406        1.5881988026
 C         -5.5228306999        1.8123667462        1.0146973661
 C         -5.7747469678        2.5341872611       -0.3084895525
 H         -6.7620807820        2.2283142869       -0.6618502218
 H         -5.8108351581        3.6106981633       -0.1283272865
 C         -4.7495395259        2.2559117287       -1.4106035591
 H         -5.2122893734        2.5028486369       -2.3680440735
 H         -4.5130416277        1.1905871357       -1.4309699964
 C         -3.4595762356        3.0749963868       -1.2555789353
 H         -3.2407363026        3.5858874786       -2.1955123706
 H         -3.6184982537        3.8548199920       -0.5110190892
 C         -2.2095923176        2.2604737899       -0.8941927072
 H         -1.7420330842        1.8900826931       -1.8122064781
 H         -1.4812047675        2.9223680258       -0.4124026705
 H         -6.2440337317        2.1839899381        1.7455606564
 H         -5.7057637880        0.7416749785        0.8916341333
 H         -4.1470470601        1.8277072907        2.6681621786
 H         -3.7229862014        2.9836511228        1.3962329034
 O         -3.2779381899       -0.2001193333        1.7789491299
 C         -2.5670614996       -1.3417920217        1.4535834434
 O         -2.7534722566       -2.3051140086        2.2253310002
 H          0.4050182118       -0.9789477336        1.6732074788
 C          1.0650592524       -1.4139995189        0.9322014790
 C          0.5361337932       -2.2622506982       -0.0320889629
 C          1.3997146479       -2.8128534215       -0.9706506293
 C          2.7516144305       -2.5155513339       -0.9424305876
 C          3.2711136211       -1.6595195652        0.0106946725
 C          2.4148928792       -1.1001983308        0.9508996944
 N          2.9241861873       -0.2046344281        1.9068832247
 S          3.9843729013        0.9756108741        1.3691224451
 O          5.3236019862        0.4400826955        1.3507311611
 O          3.7743515838        2.1020522668        2.2528902698
 C          3.4800394441        1.3793436455       -0.2943329569
 C          4.3961607589        1.2851790833       -1.3223331918
 C          3.9905973493        1.5904076208       -2.6113757416
 C          2.6809342775        1.9771254854       -2.8489299067
 C          1.7735072213        2.0713504673       -1.8052198954
 C          2.1748603292        1.7717027709       -0.5143002058
 H          1.4844724766        1.8320295807        0.3125803813
 H          0.7503146144        2.3537668181       -1.9903639807
 H          2.3608408580        2.2050609449       -3.8533523616
 H          4.6937547764        1.5192118037       -3.4255029086
 H          5.4015976673        0.9717667139       -1.0923462853
 H          2.2192418628        0.1911722742        2.5111733197
 H          4.3207400291       -1.4161748311        0.0454825660
 H          3.4098350865       -2.9522644662       -1.6775535237
 H          1.0133157597       -3.4744042543       -1.7282241238
 C         -0.9455116819       -2.5538626667       -0.0064893506
 H         -1.1380009555       -3.2692816800        0.8071541078
 C         -1.4589224881       -3.1437870138       -1.3048500815
 C         -1.4414589266       -4.6256764847       -1.5259087732
 C         -2.7409523546       -3.9188803088       -1.2871697485
 H         -3.4268611681       -3.8026172683       -2.1128449452
 H         -3.2280175012       -4.0480757017       -0.3311053698
 H         -1.0517827919       -5.2465521592       -0.7333000705
 H         -1.2385062313       -4.9973987701       -2.5190053093
 H         -1.2775801530       -2.4952931005       -2.1542022847
 O         -0.8083910202       -0.0701082083       -1.4389571894
