  62
        -98.93809772
 C         -1.9168558507       -0.4406410520       -0.6423673633
 C         -3.0165801530       -1.2196991327       -0.2111301665
 C         -4.3439610084       -0.5905644739       -0.3050508712
 C         -4.4456659080        0.6622111797       -0.7812854865
 C         -5.6912936025        1.4817012696       -1.0105590073
 C         -6.7786865488        1.4400746924        0.0714216212
 C         -6.2580272498        1.2889068156        1.5081027013
 H         -5.1772571300        1.4393465315        1.5319650334
 H         -6.7081188469        2.0634890206        2.1318458115
 C         -6.5988142550       -0.0691101479        2.1263616777
 H         -7.6308995579       -0.3203060248        1.8722714922
 H         -6.5418301502        0.0164725620        3.2141690290
 C         -5.6870430914       -1.2242578428        1.7146790968
 H         -4.6970790850       -1.0903778479        2.1588612051
 H         -6.1025019049       -2.1452365868        2.1305974717
 C         -5.4964051884       -1.4104905447        0.2003739047
 H         -5.2243273367       -2.4543344629        0.0221580186
 H         -6.4133245555       -1.1938660380       -0.3420787351
 H         -7.4742303287        0.6295271055       -0.1414126597
 H         -7.3442605102        2.3693992190       -0.0153645365
 H         -5.3359983462        2.5077391544       -1.1331802717
 H         -6.1261716215        1.1762793637       -1.9668399610
 O         -3.3566005477        1.3814396823       -1.1758045534
 C         -2.0725038021        0.8615793774       -1.1139505529
 O         -1.1858364647        1.6452110175       -1.5027026412
 H          1.7097173897        0.5405575636       -1.0443607857
 C          1.4110124130        0.5048553839       -0.0109151454
 C          0.3160205639       -0.2448050076        0.3862079928
 C         -0.0503823765       -0.2332133657        1.7309514161
 C          0.6547329991        0.5182681361        2.6494529507
 C          1.7476633433        1.2676787337        2.2484278348
 C          2.1224209612        1.2638119205        0.9106913989
 N          3.2113433661        2.0374001492        0.4795443049
 S          4.3503557631        1.4280136555       -0.5783343463
 O          5.4388420264        2.3785637672       -0.5199499657
 O          3.7698817995        1.1993070698       -1.8760067895
 C          4.8596981769       -0.1149082920        0.1572340539
 C          5.8517248431       -0.0882687169        1.1184935840
 C          6.2161366380       -1.2714312034        1.7398940166
 C          5.5788386604       -2.4546492071        1.3976694195
 C          4.5840497537       -2.4640610409        0.4323231365
 C          4.2175294649       -1.2842515168       -0.1963827722
 H          3.4519110449       -1.2550498808       -0.9536378927
 H          4.0905112116       -3.3848661954        0.1651109888
 H          5.8603130961       -3.3756658511        1.8833936800
 H          6.9925877131       -1.2678275864        2.4878191869
 H          6.3281138872        0.8515454820        1.3462178923
 H          3.6564129044        2.5735237420        1.2099097013
 H          2.2970900292        1.8623912290        2.9623643266
 H          0.3556899461        0.5207880523        3.6867385697
 H         -0.9070318393       -0.8162889391        2.0404420314
 C         -0.5247980870       -1.0461468932       -0.5753427398
 H         -0.6688351051       -2.0503522204       -0.1510231244
 C          0.0701088976       -1.1856748141       -1.9594527677
 C          1.1157059628       -2.2268190037       -2.2206495696
 C         -0.2668741466       -2.3975999308       -2.7734587987
 H         -0.4187037979       -2.2784025945       -3.8357638000
 H         -0.9113310306       -3.1366713841       -2.3202734149
 H          1.4059376057       -2.8581799687       -1.3942555393
 H          1.9167875042       -1.9910541622       -2.9058162284
 H          0.1470371735       -0.2418412140       -2.4875670235
 O         -2.8965778293       -2.3954547395        0.2254501405
