  62
        -98.94117705
 C          0.9795979299        1.5596806492       -0.7968984910
 C          2.2948156901        1.5658059200       -0.2695749716
 C          3.1300933904        0.3823566501       -0.5308771812
 C          2.6070224604       -0.6345686305       -1.2370337503
 C          3.2212892808       -1.9805560304       -1.5047444197
 C          2.8017734316       -2.9771686899       -0.4086326189
 C          3.7375507821       -3.0302098188        0.7972638008
 H          3.2826578726       -3.7026616485        1.5285017214
 H          4.6938268821       -3.4646571887        0.4965003407
 C          3.9943480519       -1.6796083283        1.4703216598
 H          3.0534820617       -1.1285406286        1.5401324298
 H          4.3307022024       -1.8717102175        2.4914201398
 C          5.0538049513       -0.8339595884        0.7481040688
 H          5.5822612812       -1.4621943887        0.0310376190
 H          5.7986555815       -0.4951555277        1.4713859983
 C          4.5206758706        0.4211088410        0.0426101683
 H          4.5027048106        1.2545967614        0.7519432377
 H          5.2169667102        0.7028096007       -0.7547876822
 H          1.7972761816       -2.7091257200       -0.0663748586
 H          2.7477292817       -3.9787573602       -0.8413404982
 H          2.8248349005       -2.3229789412       -2.4628399293
 H          4.3025353507       -1.9090109301       -1.5778787902
 O          1.3586700102       -0.5836975112       -1.7689577198
 C          0.5059077399        0.4853244786       -1.5500313502
 O         -0.6096105402        0.3435741079       -2.0888091796
 H         -1.3606641294        0.4969900090        0.0913254506
 C         -1.3034396893        1.1334991396        0.9588217102
 C         -0.6335755697        2.3457654798        0.8824237691
 C         -0.5960749895        3.1574432005        2.0094761886
 C         -1.1939302489        2.7481253811        3.1890453691
 C         -1.8032429484        1.5092207109        3.2784226201
 C         -1.8468499486        0.6925007402        2.1542643307
 N         -2.4210699682       -0.5867529400        2.1919520217
 S         -1.6885529681       -1.8189813503        1.3162568322
 O         -2.0963427074       -3.0311386900        2.0013668631
 O         -0.2613121082       -1.6235479599        1.2028626815
 C         -2.4804462588       -1.7955894616       -0.2757013875
 C         -1.7962204790       -2.3002391821       -1.3618982074
 C         -2.4306562295       -2.3430745331       -2.5927308672
 C         -3.7311363497       -1.8821269636       -2.7144871569
 C         -4.4056008895       -1.3793159731       -1.6125322570
 C         -3.7786830290       -1.3377830521       -0.3781231473
 H         -4.2701184487       -0.9467587017        0.4973845227
 H         -5.4159204596       -1.0158302635       -1.7122264468
 H         -4.2192620201       -1.9098462343       -3.6761218767
 H         -1.9009414997       -2.7238648134       -3.4511490871
 H         -0.7771769789       -2.6300902116       -1.2329058176
 H         -2.7150450277       -0.9014702895        3.1052715120
 H         -2.2313239280        1.1708593314        4.2097385405
 H         -1.1586317688        3.3874729616        4.0580986887
 H         -0.0734477799        4.1013819807        1.9656997778
 C          0.0860116097        2.7213986392       -0.3929849114
 H          0.7656250695        3.5531401296       -0.1620324222
 C         -0.8913669409        3.1775563382       -1.4560623413
 C         -1.4168524314        4.5800543880       -1.4059166920
 C         -0.4496003417        4.1796179077       -2.4783488221
 H         -0.8096849221        4.0726467669       -3.4902255419
 H          0.5650190482        4.5450422581       -2.4130315228
 H         -2.4460287015        4.7523913575       -1.6802108317
 H         -1.0580703613        5.2228317687       -0.6164330725
 H         -1.5644847008        2.3965893978       -1.7837643305
 O          2.7511672801        2.5268996606        0.4098070776
