  62
        -98.94264679
 C         -1.2498129686       -1.6527796287        0.3106940549
 C         -1.8468649653       -1.1416763884       -0.8677574383
 C         -2.9481180093       -0.1853426795       -0.6666353609
 C         -3.2450226774        0.2348601605        0.5759988792
 C         -4.3230228029        1.2230194684        0.9147065487
 C         -3.8072304567        2.6681064924        0.9023831650
 C         -3.0168562130        3.0328197645       -0.3534509415
 H         -2.7340004298        4.0839832395       -0.2671665297
 H         -2.0947386159        2.4477414826       -0.3752265610
 C         -3.7769438271        2.8220769527       -1.6696164848
 H         -4.8473551371        2.7450009537       -1.4753941343
 H         -3.6258086985        3.6957216590       -2.3071439158
 C         -3.3184698635        1.6014328749       -2.4683373553
 H         -2.2315685403        1.6244336891       -2.5826006586
 H         -3.7522794512        1.6661899122       -3.4699310327
 C         -3.7173571144        0.2396712561       -1.8868640954
 H         -4.7901774021        0.2316276015       -1.6811857529
 H         -3.5097617984       -0.5172776108       -2.6491410613
 H         -3.1589424570        2.8119737865        1.7688640290
 H         -4.6631767797        3.3379306766        1.0032893123
 H         -4.6966989065        0.9893199453        1.9131600653
 H         -5.1378162302        1.1137131582        0.2007746745
 O         -2.5687947647       -0.1866221166        1.6742970275
 C         -1.5939301678       -1.1640717116        1.5749398255
 O         -1.1074555772       -1.5146742875        2.6675236375
 O         -1.5012417709       -1.4546780318       -2.0387348243
 C         -0.2098408785       -2.7592913657        0.3067702178
 C          1.1974796533       -2.2537729392        0.0932461889
 C          2.2722614953       -2.8946640706        0.7003172621
 C          3.5662468497       -2.4427592095        0.5118125047
 C          3.8152861399       -1.3290306253       -0.2712032768
 C          2.7475286667       -0.6748717297       -0.8698401193
 C          1.4526982553       -1.1455549835       -0.6992670639
 H          0.6339415710       -0.6381959537       -1.1881340041
 N          2.9909290013        0.5068617000       -1.6086334534
 S          3.4189685901        1.8297100605       -0.6703532397
 O          3.4238804013        2.9648891394       -1.5636296327
 O          4.6608854167        1.5330238807       -0.0045630200
 C          2.1078555828        2.0043655756        0.5293721036
 C          1.1744994493        3.0070249228        0.3592316533
 C          0.1290124922        3.1111030510        1.2626951686
 C          0.0147441105        2.1921539361        2.2943438137
 C          0.9554247631        1.1861765761        2.4490837803
 C          2.0209760373        1.0966085692        1.5674891784
 H          2.7799476158        0.3398352981        1.6789251535
 H          0.8499498209        0.4610782997        3.2405177368
 H         -0.8118899608        2.2520318971        2.9851667498
 H         -0.5945243013        3.9032244559        1.1574511908
 H          1.2908088672        3.6901916668       -0.4669671273
 H          2.2131075998        0.7645620241       -2.2011574139
 H          4.8110911920       -0.9385717428       -0.4017542200
 H          4.3890588787       -2.9542157448        0.9873263162
 H          2.0878930933       -3.7482228818        1.3347134490
 H         -0.2476884743       -3.2046347660        1.3107669479
 C         -0.5177302390       -3.8469040995       -0.7077598236
 C         -0.1201725341       -5.2632005376       -0.4287042688
 C         -1.5659722310       -4.8697301575       -0.3934438178
 H         -2.2166438155       -5.2006164145       -1.1887414724
 H         -2.0530618852       -4.8045702957        0.5689497179
 H          0.2286442832       -5.8692565005       -1.2506127299
 H          0.3636656433       -5.4784847158        0.5115771385
 H         -0.4573691547       -3.4991888304       -1.7310880915
