  62
        -98.94526454
 C          1.7066260100        0.8399172101        0.1922138489
 C          2.7807238902        0.5663665200        1.0720080386
 C          3.5218672600       -0.6767596701        0.8192829284
 C          3.1291183196       -1.4841902401       -0.1830117915
 C          3.8252131094       -2.7515422002       -0.5848291916
 C          4.8859208891       -2.4843904403       -1.6620638819
 C          5.8280092593       -1.3275143304       -1.3287288822
 H          6.5505176591       -1.2516665105       -2.1441582424
 H          5.2584099595       -0.3954220704       -1.3164973320
 C          6.5754907497       -1.4807327805        0.0033017876
 H          6.5490531696       -2.5222834905        0.3259681876
 H          7.6237321597       -1.2161259107       -0.1506976927
 C          6.0524074901       -0.5881137804        1.1302554977
 H          5.9908371301        0.4454954596        0.7801821578
 H          6.7771343303       -0.6132677405        1.9484499175
 C          4.6896953002       -0.9809931803        1.7147233181
 H          4.6991834001       -2.0370688903        1.9929723781
 H          4.5340474305       -0.3889581402        2.6216835782
 H          5.4655902089       -3.3976055604       -1.8088075721
 H          4.3760312789       -2.2511829803       -2.5995983918
 H          4.2881799995       -3.1999635802        0.2922293082
 H          3.0807951392       -3.4428377601       -0.9839291214
 O          2.0664434094       -1.2098665699       -0.9815071112
 C          1.3393146796       -0.0339930298       -0.8318020210
 O          0.4078280794        0.0969485203       -1.6449547007
 H         -0.2522229997       -0.0137773996        1.4870273594
 C         -0.9782268797        0.7302339105        1.1827128496
 C         -0.5423843597        1.9001699804        0.5766807895
 C         -1.4959631597        2.8387649905        0.1974381898
 C         -2.8418505197        2.6100138507        0.4242669301
 C         -3.2715550397        1.4351974708        1.0131811903
 C         -2.3286905097        0.4837208707        1.3801317800
 N         -2.7567585097       -0.7379010593        1.9263419701
 S         -4.0610999900       -1.4935789091        1.1927896505
 O         -5.2838328598       -1.0144314589        1.7905484408
 O         -3.8104049901       -2.9110143791        1.3434036704
 C         -4.0221444704       -1.0216253891       -0.5290652995
 C         -5.1738381905       -0.5392063290       -1.1185115392
 C         -5.1363711908       -0.1550145890       -2.4490029392
 C         -3.9501971510       -0.2465632292       -3.1610725895
 C         -2.8026307909       -0.7351287493       -2.5561276999
 C         -2.8388083106       -1.1345842693       -1.2304165198
 H         -1.9492158005       -1.5080165594       -0.7485418901
 H         -1.8666959611       -0.7874613794       -3.0888228301
 H         -3.9163396713        0.0672866108       -4.1924517096
 H         -6.0278306709        0.2236075611       -2.9225617490
 H         -6.0684934303       -0.4661537589       -0.5215535190
 H         -2.0086298397       -1.3950327694        2.0918589499
 H         -4.3160086396        1.2367231909        1.1924891405
 H         -3.5675033796        3.3527043508        0.1310873803
 H         -1.1819428097        3.7536689405       -0.2774013903
 C          0.9343678403        2.1326706002        0.3660333891
 H          1.3388005206        2.5916853202        1.2815746790
 C          1.2154472401        3.0574800102       -0.8038267910
 C          1.3371959303        4.5375271302       -0.6019039110
 C          2.5574938501        3.7185296800       -0.8927074213
 H          3.0267946699        3.8095926099       -1.8608349015
 H          3.2531299303        3.5334699299       -0.0868304915
 H          1.2160097806        4.9200350902        0.4004273490
 H          0.9682798702        5.1948608502       -1.3748779109
 H          0.7720749698        2.7008336602       -1.7268065809
 O          3.1027128906        1.3255694000        2.0264410185
