  62
        -98.94306239
 C         -1.6949150160        1.0063286213       -0.2694008152
 C         -2.8898304855        0.8422053736       -1.0203285497
 C         -3.6338457181       -0.4053909382       -0.8055468652
 C         -3.1290145325       -1.3346678897        0.0253647629
 C         -3.7963781281       -2.6344336117        0.3673528649
 C         -4.6892206600       -2.4910153810        1.6079291506
 C         -5.6367706485       -1.2926643376        1.5527248107
 H         -5.0496019795       -0.3716041591        1.5738056081
 H         -6.2370338165       -1.3103008817        2.4650091188
 C         -6.5652784425       -1.2728382381        0.3303916601
 H         -7.5747057267       -1.0200144897        0.6616937233
 H         -6.6112195336       -2.2666970062       -0.1163591888
 C         -6.1801777744       -0.2525836761       -0.7427110496
 H         -6.0446301766        0.7295319790       -0.2822136288
 H         -7.0122240897       -0.1698703130       -1.4470309109
 C         -4.9229425322       -0.5830054457       -1.5569238315
 H         -4.8783966613        0.1149145436       -2.3981916582
 H         -5.0000155924       -1.5963964729       -1.9561446446
 H         -4.0485042394       -2.3799891148        2.4858965442
 H         -5.2681202108       -3.4089740262        1.7247573702
 H         -4.3888258903       -2.9671087473       -0.4827389348
 H         -3.0233643329       -3.3767452729        0.5724833259
 O         -1.9601583694       -1.1677048910        0.6897246239
 C         -1.2219514859        0.0069256161        0.5836475731
 O         -0.1990263628        0.0071369029        1.2919122687
 H          1.2655557389        2.1568449986        1.1366871056
 C          1.5032859349        1.8921562886        0.1184733123
 C          0.5146149036        1.9364225153       -0.8510587404
 C          0.8375603124        1.5666939767       -2.1531618922
 C          2.1222951981        1.1707252307       -2.4766193912
 C          3.1021583921        1.1032224895       -1.5014236407
 C          2.7805897782        1.4476948333       -0.1950843706
 N          3.7472687260        1.3208286470        0.8161659740
 S          4.7500736728       -0.0158322797        0.7766193295
 O          5.0884697051       -0.2790879499        2.1588110503
 O          5.8719108170        0.2589527189       -0.0899719760
 C          3.8117274397       -1.3783260682        0.0982716291
 C          4.4269345600       -2.1969899657       -0.8287276360
 C          3.7270372644       -3.2738521048       -1.3476404584
 C          2.4245700177       -3.5119701315       -0.9363866073
 C          1.8219030031       -2.6808120654       -0.0057251847
 C          2.5186463901       -1.6060200125        0.5241079695
 H          2.0388309086       -0.9495699822        1.2325098241
 H          0.8043047956       -2.8470755638        0.3120216368
 H          1.8748514176       -4.3459061058       -1.3439136095
 H          4.1958667788       -3.9198108501       -2.0723904512
 H          5.4364177706       -1.9678732478       -1.1300487390
 H          3.3783376566        1.4666394746        1.7447168206
 H          4.1060847078        0.7842301323       -1.7317618284
 H          2.3622933077        0.8990846092       -3.4931585684
 H          0.0653433189        1.5864299699       -2.9094557738
 C         -0.9082290650        2.2863093632       -0.5030620859
 H         -1.3794086075        2.7340160423       -1.3924393679
 C         -1.0100421420        3.3218489710        0.6068038288
 C         -2.3297787039        3.5967110857        1.2622856562
 C         -1.2171967978        2.9751880784        2.0493225406
 H         -0.7179785763        3.5799135455        2.7928758338
 H         -1.2943310872        1.9338519107        2.3185820265
 H         -3.1623705878        2.9704426072        0.9760985216
 H         -2.6035571592        4.6199473633        1.4705252833
 H         -0.3823953403        4.1847794444        0.4043595328
 O         -3.3137146416        1.7026014917       -1.8368278121
