  62
        -98.94238555
 C          0.7545166450        1.5015314963        0.1545449786
 C          1.4317860665        0.4977442641        0.8811042309
 C          2.3135487207       -0.3920225750        0.1066565268
 C          2.3838029251       -0.2461331466       -1.2279917535
 C          3.1356073176       -1.0875132035       -2.2308143477
 C          4.5443893706       -1.5617912913       -1.8559080396
 C          5.3639559184       -0.5511263802       -1.0405566842
 H          4.8572073344        0.4154718898       -1.0308245192
 H          6.3324720947       -0.4070768412       -1.5227975403
 C          5.6155732852       -1.0096447542        0.3971957589
 H          6.4683272995       -0.4562893000        0.7975187047
 H          5.8877948907       -2.0671827221        0.3854438633
 C          4.4486055943       -0.8022086891        1.3610395830
 H          4.3021721421        0.2666028156        1.5385246567
 H          4.7213483846       -1.2520953800        2.3185574919
 C          3.0994054723       -1.3881975064        0.9113819394
 H          2.5040499962       -1.5725943790        1.8093888071
 H          3.2332434575       -2.3271264861        0.3790314297
 H          5.0601967611       -1.7817895444       -2.7923041136
 H          4.4809466968       -2.4995410925       -1.3061154203
 H          3.1844654731       -0.4742355182       -3.1343566282
 H          2.5113862253       -1.9544031119       -2.4716533602
 O          1.7016910796        0.7299281919       -1.8913762748
 C          0.8693419324        1.6159741751       -1.2303164372
 O          0.3130294660        2.4507790405       -1.9699762648
 O          1.2921957114        0.3360050677        2.1238349068
 C         -0.2093781804        2.4191115148        0.8854527741
 C         -1.5924173799        2.2218950973        0.3154578566
 C         -2.4475209992        3.2625006739       -0.0209204475
 C         -3.6760443097        2.9958417966       -0.6013341724
 C         -4.0659732228        1.6981158064       -0.8752851566
 C         -3.2232807993        0.6486651851       -0.5250118822
 C         -2.0170938054        0.9169077553        0.0975352531
 H         -1.3680619740        0.0975385741        0.3711398701
 N         -3.5774301662       -0.6847152415       -0.7768565764
 S         -2.3919185807       -1.8118763933       -1.1318482696
 O         -1.2781185436       -1.2410118952       -1.8530660911
 O         -3.1083556463       -2.8716056933       -1.8135938161
 C         -1.8731130120       -2.4207616714        0.4577321163
 C         -2.8404429329       -2.7081102882        1.4007130775
 C         -2.4487044041       -3.2273423120        2.6237631784
 C         -1.1054405374       -3.4603817132        2.8773246895
 C         -0.1479031006       -3.1733583869        1.9175380800
 C         -0.5322088027       -2.6448135792        0.6954123992
 H          0.1844165823       -2.3868287719       -0.0698866179
 H          0.8964497101       -3.3536805541        2.1147904890
 H         -0.8001765850       -3.8667587626        3.8286261331
 H         -3.1900788341       -3.4497425075        3.3742130346
 H         -3.8739707093       -2.5187667443        1.1639079775
 H         -4.4044340958       -0.8109657383       -1.3419373522
 H         -5.0080859057        1.4948970632       -1.3611426535
 H         -4.3296540358        3.8132094503       -0.8659465336
 H         -2.1466737214        4.2823735645        0.1541357077
 H         -0.2087936610        2.0748368571        1.9305383834
 C          0.2684138797        3.8546832443        0.8405236046
 C         -0.0890241560        4.8060509212        1.9423323347
 C          1.3155693036        4.3003982716        1.8153903624
 H          2.0821661643        4.9794920610        1.4734959308
 H          1.6654281359        3.5724785614        2.5327284756
 H         -0.2854436644        5.8370129770        1.6893815349
 H         -0.6914149072        4.4268588391        2.7536845912
 H          0.3302865969        4.2387558333       -0.1717287738
