  62
        -98.93575849
 C         -2.3738041224       -0.5818154713        0.9028492604
 C         -3.4606857800       -1.0861956132        0.1455476731
 C         -4.7154020758       -0.3200141492        0.2397556528
 C         -4.7744919169        0.7693057252        1.0251678685
 C         -5.9642203613        1.6749445766        1.1537344921
 C         -5.8961276326        2.8238201628        0.1376229291
 C         -5.6007187138        2.3677627287       -1.2913605065
 H         -5.6074283433        3.2578817587       -1.9242321071
 H         -4.5904375363        1.9536592818       -1.3312909385
 C         -6.5939591510        1.3375113656       -1.8469638639
 H         -7.5084969050        1.3473782477       -1.2529819483
 H         -6.8650136014        1.6265454006       -2.8645675322
 C         -6.0526986441       -0.0915057834       -1.9195301026
 H         -5.0887385266       -0.0919469319       -2.4344340877
 H         -6.7450156437       -0.6871094936       -2.5204548917
 C         -5.8801235773       -0.8092348037       -0.5748453125
 H         -6.8064399915       -0.7448603126       -0.0007711818
 H         -5.6768374844       -1.8633610194       -0.7848645910
 H         -6.8452328612        3.3623750012        0.1612965668
 H         -5.1061833376        3.5122501443        0.4469127387
 H         -6.8735940890        1.0962845891        1.0043320435
 H         -5.9709123622        2.0927623989        2.1618207727
 O         -3.7204790656        1.2043847898        1.7631476115
 C         -2.5008162330        0.5538982787        1.7074961920
 O         -1.6160663501        1.0700449131        2.4213914398
 H          1.5026789924       -0.1880758688        1.0357616060
 C          1.1196959330       -0.1930018565        0.0257088361
 C         -0.1553110577       -0.6735267326       -0.2312163281
 C         -0.6319202243       -0.6442563090       -1.5386685492
 C          0.1588818370       -0.1525459913       -2.5606870131
 C          1.4393166914        0.3051988903       -2.3040286712
 C          1.9208815403        0.2892536148       -1.0003225972
 N          3.2052147338        0.7706347611       -0.7026729243
 S          4.0816653428       -0.0074320027        0.5137818577
 O          3.9393106114       -1.4398163781        0.3814150764
 O          3.7130725436        0.5551765180        1.7884394750
 C          5.7374472111        0.4979257459        0.0885306348
 C          6.1617131400        1.7573666869        0.4687459631
 C          7.4350957336        2.1709121378        0.1113434666
 C          8.2578513481        1.3237310032       -0.6164247684
 C          7.8188717800        0.0620413692       -0.9886218651
 C          6.5457077563       -0.3576174124       -0.6358699611
 H          6.1643970358       -1.3318505594       -0.8964131604
 H          8.4620736055       -0.5951733821       -1.5513041947
 H          9.2486808534        1.6481358550       -0.8925836549
 H          7.7807274053        3.1499984536        0.4014156051
 H          5.4904521330        2.3763496300        1.0411916229
 H          3.7668787333        0.9322589598       -1.5275557225
 H          2.0583309242        0.6801382059       -3.1048882911
 H         -0.2215649887       -0.1366949032       -3.5710360909
 H         -1.6223431187       -1.0207938093       -1.7440315108
 C         -0.9926401601       -1.2157529164        0.8986455017
 H         -0.5210268666       -0.8870342002        1.8394181444
 C         -1.0243920190       -2.7381995437        0.9266833652
 C         -0.6187404393       -3.6017931653       -0.2255147524
 C          0.2634060440       -3.5070475744        0.9807965176
 H          0.3306834023       -4.3562926942        1.6442396438
 H          1.1846229646       -2.9480536327        0.8893710754
 H         -1.1813613642       -4.5079190066       -0.3902048104
 H         -0.2907922524       -3.1227138680       -1.1342003038
 H         -1.8372071288       -3.1115738807        1.5417432177
 O         -3.4083543160       -2.1112727048       -0.5800313092
