  62
        -98.93126115
 C         -2.5528242715       -1.1506279864        0.4711638287
 C         -3.4067769950       -0.7700656059       -0.5923773892
 C         -4.5910353256        0.0302615021       -0.2214262400
 C         -4.7968465775        0.3632495083        1.0631615572
 C         -5.9456724889        1.1321827758        1.6669177115
 C         -6.4476190271        2.3705936316        0.9125012407
 C         -5.3634556146        3.1545799497        0.1588906627
 H         -5.4331013615        4.2088943587        0.4330571746
 H         -4.3734002047        2.8053325792        0.4572329818
 C         -5.5025955386        3.0546449252       -1.3620290973
 H         -6.5576073977        3.1584281458       -1.6249757288
 H         -4.9681680095        3.8909519928       -1.8190142358
 C         -4.9549636501        1.7722838998       -1.9869310605
 H         -5.2131576268        1.7783037160       -3.0486120398
 H         -3.8635781653        1.7667020539       -1.9229100242
 C         -5.4652805246        0.4626241958       -1.3637118500
 H         -5.3837342657       -0.3228924006       -2.1198840666
 H         -6.5066620460        0.5481579315       -1.0633995600
 H         -7.2278086609        2.0790576950        0.2107422485
 H         -6.9186541763        3.0197857199        1.6526538603
 H         -6.7795578183        0.4386851136        1.8105063385
 H         -5.5979668132        1.4253022613        2.6605270018
 O         -3.9401082331       -0.0151336362        2.0550284407
 C         -2.8132304477       -0.7685864112        1.7888107329
 O         -2.1300137497       -1.0410224668        2.7977256692
 O         -3.2182958934       -1.0784509842       -1.7957068572
 C         -1.3022814876       -1.9920975829        0.2753823815
 C         -0.1181662644       -1.1250851060       -0.0666414398
 C         -0.1510671326       -0.2426867705       -1.1421982688
 C          0.9523371246        0.5346593199       -1.4435746689
 C          2.1043022877        0.4551851926       -0.6801565834
 C          2.1458800410       -0.4168559741        0.3988468514
 C          1.0381225149       -1.2008291601        0.6957532498
 H          1.0713050799       -1.8724807423        1.5436627732
 N          3.3080208087       -0.4889367791        1.1859971829
 S          4.7728663213       -0.7573456235        0.4082927480
 O          4.5852982307       -1.4912075823       -0.8215448966
 O          5.6209876862       -1.3746526139        1.4041651481
 C          5.3838097814        0.8777019520        0.0595237277
 C          5.6954716620        1.2333863242       -1.2380632593
 C          6.1829946802        2.5074917773       -1.4846885079
 C          6.3499758715        3.3976177823       -0.4349117387
 C          6.0342138945        3.0238628906        0.8630444976
 C          5.5475439100        1.7515010524        1.1165455262
 H          5.2950520454        1.4209169909        2.1102825263
 H          6.1657475478        3.7189155417        1.6766668431
 H          6.7291261658        4.3885061175       -0.6291530738
 H          6.4298007011        2.7998165034       -2.4927356899
 H          5.5452843200        0.5094328841       -2.0231635025
 H          3.2167421162       -1.0892893529        1.9929170988
 H          2.9653600869        1.0608023127       -0.9114504471
 H          0.9151006455        1.2124791539       -2.2829687118
 H         -1.0477082086       -0.1810000868       -1.7400979466
 H         -1.1069608237       -2.4403243334        1.2627880164
 C         -1.5057608398       -3.1423455863       -0.7024161608
 C         -0.8444557631       -3.2347604292       -2.0411327224
 C         -0.4008615037       -4.1324277385       -0.9279652231
 H         -0.6450830144       -5.1829459080       -0.9738842130
 H          0.5560217496       -3.9216898844       -0.4724174777
 H         -1.4198354538       -3.6543956370       -2.8520245729
 H         -0.1819804493       -2.4400620939       -2.3450492375
 H         -2.5104697835       -3.5479843986       -0.6390999844
