  62
        -98.94301556
 C         -2.3321837485       -0.8998790882        0.4531456351
 C         -2.5213684652        0.1230560005       -0.5075716607
 C         -3.4969628856        1.1628288967       -0.1519742398
 C         -4.1173325971        1.1297136772        1.0405274792
 C         -5.1070655944        2.1381477703        1.5570831846
 C         -6.5469991171        1.9014765689        1.0813954460
 C         -6.8082135769        2.2282090743       -0.3894524544
 H         -6.4539849552        3.2367207599       -0.6051716287
 H         -7.8908350102        2.2262659789       -0.5306687108
 C         -6.1801351506        1.2369797334       -1.3791214139
 H         -6.9144770112        0.9691211853       -2.1421773456
 H         -5.9146498327        0.3164431456       -0.8541530009
 C         -4.9437965347        1.7652674795       -2.1066279123
 H         -5.2245041351        2.6082796343       -2.7420657808
 H         -4.5602325431        0.9707238920       -2.7519029495
 C         -3.8072022531        2.2114748583       -1.1776900017
 H         -4.0650551103        3.1530691401       -0.6935294881
 H         -2.9095935858        2.3629453446       -1.7823511792
 H         -7.1989352600        2.5301109246        1.6922769014
 H         -6.8124824702        0.8597966853        1.2759130264
 H         -4.7894047465        3.1420953989        1.2740484755
 H         -5.0876502885        2.0610516645        2.6462971287
 O         -3.8875169898        0.1477155529        1.9510257408
 C         -3.0185837509       -0.8918660399        1.6731669638
 O         -2.9390354499       -1.7426797674        2.5815406859
 O         -1.9179951427        0.1955520402       -1.6127568826
 C         -1.3938475259       -2.0804333229        0.2508287121
 C          0.0428758036       -1.7013702378        0.5232027720
 C          0.7586580554       -2.3141339879        1.5450227159
 C          2.0783184918       -1.9722518611        1.7827910353
 C          2.7086208367       -1.0110992102        1.0128273693
 C          2.0021243955       -0.3924341191       -0.0102681196
 C          0.6816256296       -0.7447292364       -0.2525403971
 H          0.1342669052       -0.2577268987       -1.0461265390
 N          2.6165772624        0.6083193712       -0.7805309870
 S          4.1541147307        0.3402865282       -1.3912897699
 O          4.2686910511        1.2220630930       -2.5322894289
 O          4.3920913218       -1.0631451816       -1.6384571853
 C          5.2334515522        0.9232747091       -0.1000853553
 C          5.0445370467        2.2054832000        0.3771586681
 C          5.8819839506        2.6784135000        1.3746793259
 C          6.8908638262        1.8673402475        1.8729096268
 C          7.0704305455        0.5839558267        1.3802600245
 C          6.2351645458        0.1044260296        0.3831294159
 H          6.3334864123       -0.8885485317       -0.0259360251
 H          7.8556169196       -0.0446582632        1.7685030238
 H          7.5408366672        2.2381647657        2.6496567949
 H          5.7451253776        3.6759232233        1.7602750381
 H          4.2510614853        2.8044204285       -0.0379193670
 H          2.0082950757        1.0062370424       -1.4815686201
 H          3.7355294616       -0.7398795489        1.1956337018
 H          2.6220849786       -2.4565522714        2.5795148440
 H          0.2693775547       -3.0546045353        2.1610541437
 H         -1.6900386262       -2.8229616401        1.0037746421
 C         -1.5307382568       -2.7137468505       -1.1210256038
 C         -1.1049608894       -4.1370844684       -1.3101871186
 C         -2.5603889918       -3.7796459923       -1.3370014690
 H         -3.0837596079       -3.8069543848       -2.2810025239
 H         -3.1705866343       -4.0631061708       -0.4914771583
 H         -0.6241719124       -4.4116249312       -2.2366851517
 H         -0.7291699987       -4.6659293619       -0.4473482567
 H         -1.3537159741       -2.0230186408       -1.9348935498
