  62
        -98.93994226
 C          1.3296329846        1.1283574817       -0.1825858527
 C          2.4295932457        1.0629408735        0.7085119394
 C          3.1809731343       -0.2020395907        0.7374472935
 C          2.7847695071       -1.2186262573       -0.0472143871
 C          3.3702703833       -2.6048862758       -0.1531608342
 C          4.9000860633       -2.7288416449       -0.1749338739
 C          5.6366230853       -1.5662408800       -0.8560874586
 H          6.3335742906       -1.9703227769       -1.5926787502
 H          4.9263890169       -0.9345916394       -1.3922873473
 C          6.4383780695       -0.7100575210        0.1272176908
 H          6.9542513835       -1.3707057463        0.8275685103
 H          7.2038430624       -0.1614942194       -0.4270593426
 C          5.6262920592        0.3176079677        0.9146274226
 H          6.2880765198        0.7731629051        1.6552508953
 H          5.2949299437        1.1178473460        0.2472955494
 C          4.3842699507       -0.2316693502        1.6353271993
 H          4.1562465843        0.4388169835        2.4683491682
 H          4.5676403400       -1.2271069746        2.0322595663
 H          5.2725782169       -2.8358836449        0.8428522797
 H          5.1336804041       -3.6604730317       -0.6932090272
 H          2.9784665626       -3.2048049238        0.6734254499
 H          2.9598178916       -3.0159047997       -1.0784817396
 O          1.7112260810       -1.1178973030       -0.8783867178
 C          0.9575982186        0.0402239902       -0.9716948396
 O          0.0164970533       -0.0368200804       -1.7837555892
 O          2.7666871575        2.0201429529        1.4546479681
 C          0.5200488950        2.4151241441       -0.2163762186
 C         -0.8069488429        2.1287863769        0.4392776990
 C         -0.9311095793        2.2425343231        1.8208458442
 C         -2.1071699858        1.8895943429        2.4570354788
 C         -3.1778487127        1.3958586848        1.7313759849
 C         -3.0565421669        1.2662791630        0.3545693905
 C         -1.8888772776        1.6537783102       -0.2867984992
 H         -1.8084154996        1.5369929149       -1.3556048925
 N         -4.1232046825        0.7129734615       -0.3893181630
 S         -4.4991869280       -0.8807425720       -0.0311657753
 O         -5.3521712956       -1.3273967115       -1.1092167859
 O         -5.0693989748       -0.9336813352        1.2919123539
 C         -2.9541212695       -1.7714665324       -0.0598261142
 C         -2.5580330023       -2.3767604252       -1.2347265731
 C         -1.3471985280       -3.0472639845       -1.2691187433
 C         -0.5508533268       -3.0899869797       -0.1363808061
 C         -0.9552722171       -2.4640151568        1.0319365270
 C         -2.1697197157       -1.7993331812        1.0755892833
 H         -2.5196837547       -1.3101814504        1.9700802018
 H         -0.3260965436       -2.4858949337        1.9081740809
 H          0.3950593025       -3.6071412706       -0.1672892911
 H         -1.0222898327       -3.5240336691       -2.1798097456
 H         -3.2064599388       -2.3211417568       -2.0945516350
 H         -3.9768547834        0.7910497689       -1.3867666704
 H         -4.0920056225        1.0855552825        2.2111342326
 H         -2.1902392750        1.9909993044        3.5286394001
 H         -0.0853596788        2.5964659135        2.3933732035
 H          1.0708341380        3.1230508700        0.4167850875
 C          0.4034277527        2.9962678636       -1.6095188851
 C         -0.0707190930        4.4085651936       -1.7727204495
 C          1.3626037720        4.0633069352       -2.0406263873
 H          1.7108100506        4.0599219287       -3.0627486494
 H          2.1076746154        4.3850111568       -1.3277650359
 H         -0.7085061276        4.6463507866       -2.6102709872
 H         -0.2995726969        4.9629907030       -0.8751421975
 H          0.1058745208        2.2726415323       -2.3579941415
