  62
        -98.94049068
 C         -1.2731401364       -1.5903005750        0.0001908953
 C         -2.2245029505       -1.1341907501        0.9385501011
 C         -3.1340803480       -0.0600625310        0.4949932610
 C         -2.9841392317        0.4426327434       -0.7448357840
 C         -3.8163333148        1.5070202654       -1.4094025925
 C         -3.4993482414        2.9353242705       -0.9276662428
 C         -3.1413486195        3.0556498745        0.5521589383
 H         -2.7378454982        4.0573492664        0.7225178002
 H         -2.3500828621        2.3418066694        0.7895803602
 C         -4.3122044658        2.8624284227        1.5130862973
 H         -5.0335422467        3.6689456374        1.3601427240
 H         -3.9260000994        2.9519288962        2.5318284239
 C         -5.0546211487        1.5328496067        1.3923420205
 H         -5.6272138895        1.4979612722        0.4696585960
 H         -5.7790774728        1.4880790492        2.2111631824
 C         -4.1774015362        0.2913058807        1.5276352576
 H         -4.8311756578       -0.5865750756        1.6050793297
 H         -3.6424601033        0.3370201607        2.4832703130
 H         -4.3553802706        3.5749639223       -1.1478635260
 H         -2.6498626507        3.3019529405       -1.5057373207
 H         -4.8685899742        1.2722574690       -1.2696789907
 H         -3.6061690836        1.4449564146       -2.4790170402
 O         -1.9972529608        0.0264857318       -1.5873354408
 C         -1.1342931974       -1.0029044322       -1.2571630792
 O         -0.3124799484       -1.2956859098       -2.1433970353
 O         -2.3218129756       -1.6090199326        2.1041253460
 C         -0.3756375541       -2.7586052646        0.3658650030
 C          1.0732554046       -2.3477515459        0.2984090928
 C          2.0362412575       -3.0397791171       -0.4229737252
 C          3.3472102679       -2.5941671965       -0.4522679562
 C          3.7282445267       -1.4612113210        0.2420329764
 C          2.7733386689       -0.7656699303        0.9734678303
 C          1.4611355798       -1.2098518637        0.9968477534
 H          0.7175160717       -0.6636898615        1.5647639568
 N          3.1546493670        0.3936925537        1.6851879565
 S          3.6775810073        1.6913300288        0.7625897349
 O          4.8958626982        1.3232018450        0.0889063027
 O          3.7634039510        2.8056193825        1.6788859956
 C          2.3724685446        1.9686222762       -0.4187854571
 C          2.3259564524        1.2041476757       -1.5674004673
 C          1.2684308939        1.3793227344       -2.4452130101
 C          0.2826520824        2.3109302654       -2.1600197934
 C          0.3453961580        3.0728437728       -1.0035124936
 C          1.3953649557        2.8960625543       -0.1179818718
 H          1.4822892349        3.4679623917        0.7921938972
 H         -0.4200836740        3.7999692312       -0.7843539107
 H         -0.5415279985        2.4346715735       -2.8448963320
 H          1.2048143981        0.7734796414       -3.3341178129
 H          3.1097486297        0.4897549624       -1.7593423130
 H          2.4403700671        0.7152183778        2.3239476224
 H          4.7410455234       -1.0932148843        0.2173318757
 H          4.0833255480       -3.1390679329       -1.0236446314
 H          1.7612214408       -3.9255430528       -0.9710161984
 H         -0.6144933970       -2.9942375174        1.4136895428
 C         -0.7111400342       -3.9609330598       -0.4914112107
 C         -0.4588370664       -5.3465025119        0.0209051416
 C         -1.8621760719       -4.8339339334       -0.0942628882
 H         -2.4976834336       -5.2345412914       -0.8697483489
 H         -2.3908077268       -4.5764372337        0.8120727799
 H         -0.1324083572       -6.1035947221       -0.6759610243
 H         -0.0347428691       -5.4445301471        1.0087344194
 H         -0.5715635334       -3.7709680798       -1.5496384056
