  62
        -98.93611585
 C          2.3866659597        1.2556016133       -0.0074703008
 C          3.3275363792        0.7087888917        0.9056387803
 C          4.2698221479       -0.2836487437        0.3712805280
 C          4.2114342548       -0.5999843143       -0.9346774746
 C          5.0394531531       -1.6505398197       -1.6182236058
 C          4.4786081093       -3.0507130714       -1.2964157987
 C          5.4142898117       -3.9304505473       -0.4667868039
 H          4.8343982616       -4.7891543329       -0.1218549204
 H          6.2103372614       -4.3082729753       -1.1118673847
 C          6.0719487487       -3.2556085114        0.7408341566
 H          6.4828026599       -4.0523804627        1.3645393597
 H          6.9188579145       -2.6534190183        0.4085746855
 C          5.1547927510       -2.3789456427        1.6034345126
 H          5.4239076753       -2.5333576001        2.6502643194
 H          4.1143187083       -2.6860777284        1.4948451094
 C          5.2704072254       -0.8676655104        1.3295588774
 H          5.1068334632       -0.3287473318        2.2673374422
 H          6.2827506121       -0.6342022744        0.9885348595
 H          3.5305715899       -2.9262854431       -0.7685926928
 H          4.2529725847       -3.5745636351       -2.2265751763
 H          4.9889228915       -1.4579834093       -2.6901056603
 H          6.0756220221       -1.5692171048       -1.2976126000
 O          3.3139265882       -0.0404424972       -1.7841213830
 C          2.3754730790        0.8855288932       -1.3516675259
 O          1.6190657990        1.2788310065       -2.2636674520
 H         -0.3284095301        1.1507408133       -1.2045754866
 C         -0.7036537274        1.1013496712       -0.1929852320
 C          0.0622800433        1.6194065973        0.8415796476
 C         -0.4321990845        1.5402942889        2.1382181171
 C         -1.6599259765        0.9528178288        2.3887283861
 C         -2.4149150002        0.4267348744        1.3558327827
 C         -1.9298528387        0.5004891441        0.0564089160
 N         -2.6654341315       -0.0603691071       -0.9995345216
 S         -4.3121389072        0.2320793765       -1.1036134521
 O         -4.6456295907        0.0342220130       -2.4971002570
 O         -4.6628446194        1.5130579556       -0.5351756652
 C         -5.0367056589       -1.0810735138       -0.1430042254
 C         -4.6849611421       -2.3809344112       -0.4498089718
 C         -5.2437193273       -3.4161580122        0.2823735330
 C         -6.1426714127       -3.1361367626        1.3008829675
 C         -6.4892474896       -1.8261094455        1.5936740373
 C         -5.9328049637       -0.7857914823        0.8656009720
 H         -6.1683587485        0.2481852779        1.0614511111
 H         -7.1886744585       -1.6106173953        2.3853525654
 H         -6.5753324412       -3.9441104992        1.8694581982
 H         -4.9760413190       -4.4360794918        0.0574547674
 H         -3.9851274755       -2.5564106040       -1.2499235703
 H         -2.2164454478        0.0338251449       -1.8989905510
 H         -3.3698855978       -0.0351652977        1.5456155213
 H         -2.0317260285        0.8987222429        3.4005066991
 H          0.1590744935        1.9325663845        2.9526959424
 C          1.4002659804        2.2625550952        0.5611201035
 H          1.8303361175        2.5685775513        1.5241814954
 C          1.2336586947        3.4991273983       -0.3003889500
 C          0.7240075260        4.7590793071        0.3298698297
 C          2.1561926262        4.6623293789       -0.1011979009
 H          2.4755107852        5.2199712516       -0.9688132871
 H          2.9139882389        4.5734533411        0.6635673537
 H          0.0547159125        5.3850900319       -0.2401920489
 H          0.5108705128        4.7380071477        1.3878657050
 H          0.9222822221        3.2819433835       -1.3139029846
 O          3.3772908065        1.0436145136        2.1192355325
