  62
        -98.93876432
 C          1.4332172047        1.2912316716       -0.6327626857
 C          2.7461887618        1.2440577140       -0.0979996142
 C          3.6092350599        0.1344567449       -0.5317167075
 C          3.1245142047       -0.7712961617       -1.3978774882
 C          3.8205331232       -1.9630084514       -2.0076229984
 C          4.7246845992       -2.8006732731       -1.0951199350
 C          4.2444945445       -2.9183036571        0.3588972861
 H          4.2249128746       -3.9724796078        0.6424694798
 H          3.2232698089       -2.5415556610        0.4491496703
 C          5.1516785353       -2.1825146138        1.3480924833
 H          6.1924500507       -2.3812105222        1.0828132104
 H          4.9843726625       -2.5915167433        2.3474590119
 C          4.9369063029       -0.6721772010        1.4356972647
 H          5.7094692404       -0.2601203619        2.0894422138
 H          3.9725331357       -0.4629907988        1.9076243725
 C          4.9726255375        0.0804224875        0.0955907121
 H          5.7098944356       -0.3487043952       -0.5784935188
 H          5.2495821689        1.1180379541        0.3012152855
 H          5.7337418353       -2.3910311706       -1.1044414924
 H          4.7849784326       -3.7955157667       -1.5399652461
 H          4.4029505783       -1.6139545548       -2.8656256746
 H          3.0154907085       -2.5903435861       -2.3986447898
 O          1.8607889614       -0.6863772245       -1.8953053841
 C          0.9804706447        0.3184444984       -1.5222905287
 O         -0.1334611016        0.2230405841       -2.0726144943
 O          3.1885372587        2.1120716972        0.7021107738
 C          0.5479482620        2.4233130930       -0.1369424351
 C         -0.2049560960        1.9682039309        1.0917390072
 C          0.0217411248        2.5697050054        2.3235557337
 C         -0.6339330166        2.1189306518        3.4554705342
 C         -1.5128982642        1.0552211528        3.3788921280
 C         -1.7488670881        0.4457305917        2.1494330137
 C         -1.1110125383        0.9185986257        1.0122683566
 H         -1.2829581631        0.4360522400        0.0647521519
 N         -2.6462779612       -0.6236117909        2.0610112819
 S         -2.5354863928       -1.8377072078        0.9126728346
 O         -3.1595910581       -2.9768823657        1.5566479233
 O         -1.1788265020       -2.0324374925        0.4608043338
 C         -3.6171483320       -1.2711801115       -0.3828293877
 C         -4.9706919850       -1.2639843709       -0.1003132816
 C         -5.8578867262       -0.8203613775       -1.0658684264
 C         -5.3793886228       -0.3925439842       -2.2958054338
 C         -4.0202455471       -0.4092577982       -2.5640607673
 C         -3.1247866521       -0.8531740810       -1.6012892015
 H         -2.0614079919       -0.8613532142       -1.7865039822
 H         -3.6412928339       -0.0759942801       -3.5172350491
 H         -6.0682661547       -0.0449312595       -3.0496343220
 H         -6.9158910704       -0.8083790191       -0.8590866399
 H         -5.2992074186       -1.6174289598        0.8628806295
 H         -2.9896884455       -0.9688081735        2.9446028365
 H         -2.0116471682        0.6896596007        4.2636952405
 H         -0.4482102816        2.5906579483        4.4085205553
 H          0.7348035800        3.3777791841        2.3934419478
 H          1.2429489067        3.2149313419        0.1762155595
 C         -0.3918591176        2.9966989174       -1.1765289386
 C         -0.9075775166        4.3916179235       -0.9925573728
 C          0.0890953340        4.0968728064       -2.0723330109
 H         -0.2407137234        4.1030334693       -3.1001451178
 H          1.1039499890        4.4425740068       -1.9387115296
 H         -1.9264450204        4.6039367020       -1.2771140729
 H         -0.5680888227        4.9408622027       -0.1274495709
 H         -1.0617356323        2.2651111932       -1.6075322126
