  62
        -98.94007158
 C         -2.2458074947       -1.0858991967       -0.4420063264
 C         -3.5390698072       -0.9791012924        0.1303524946
 C         -4.3439560932        0.1680680326       -0.3000654572
 C         -3.8426194284        1.0315857784       -1.2014755066
 C         -4.5427710674        2.2457954684       -1.7489783192
 C         -4.4174037641        3.4887837830       -0.8572227867
 C         -5.2434129124        3.4518243337        0.4292605400
 H         -5.2336899573        4.4615669825        0.8443529187
 H         -6.2784338158        3.2086454695        0.1873970314
 C         -4.7182079946        2.4766311992        1.4922481758
 H         -3.6846435069        2.2067871753        1.2611762118
 H         -4.7081451254        2.9710115595        2.4662667694
 C         -5.5425046275        1.1978124886        1.6421338547
 H         -5.0606198363        0.5670075051        2.3932395732
 H         -6.5430478974        1.4470588936        2.0020846291
 C         -5.6773427431        0.3780775529        0.3520779768
 H         -6.0796228506       -0.6044287283        0.6100390799
 H         -6.3644505254        0.8689658847       -0.3364161390
 H         -3.3628726612        3.6350051627       -0.6107278054
 H         -4.7424422648        4.3481080945       -1.4483776449
 H         -4.0770452782        2.4645226040       -2.7122882879
 H         -5.5962275202        2.0188616535       -1.9145848375
 O         -2.6066453220        0.8824620364       -1.7475094394
 C         -1.7656257294       -0.1559551981       -1.3648033131
 O         -0.6557588171       -0.1350053292       -1.9304874383
 O         -3.9995505020       -1.8064780060        0.9615076424
 C         -1.3584194463       -2.2261518232        0.0322530851
 C         -0.3384636790       -1.6534746743        0.9867871539
 C         -0.7205644359       -1.4175585152        2.3057575781
 C          0.1609810849       -0.8519526207        3.2060507840
 C          1.4393125440       -0.5044899707        2.8063597199
 C          1.8311398425       -0.7345767147        1.4927271610
 C          0.9458403448       -1.3108265323        0.5909169773
 H          1.2625018202       -1.4557995823       -0.4283539761
 N          3.1401192453       -0.4193111375        1.0809673119
 S          3.3551402052        0.3269471558       -0.4223783986
 O          2.4858399960        1.4770729284       -0.5315598534
 O          3.2701735032       -0.6701826491       -1.4575446332
 C          5.0506229066        0.8598756257       -0.2539035301
 C          5.3222694568        2.1724879314        0.0820823502
 C          6.6420855598        2.5665016441        0.2381490416
 C          7.6627787998        1.6450670008        0.0596379790
 C          7.3750481038        0.3308968708       -0.2782840688
 C          6.0577301613       -0.0687247853       -0.4372282721
 H          5.7855598321       -1.0753698822       -0.7080703019
 H          8.1712833075       -0.3820357241       -0.4191661599
 H          8.6888980529        1.9539387144        0.1816779985
 H          6.8680604299        3.5883349723        0.4972214642
 H          4.4959980015        2.8549333391        0.2017582472
 H          3.6416341335        0.0980265022        1.7920786709
 H          2.1302054090       -0.0587315663        3.5062429149
 H         -0.1490594851       -0.6747990018        4.2248845561
 H         -1.7261895721       -1.6739852299        2.6085299886
 H         -2.0239234656       -2.8834990937        0.6097157829
 C         -0.7566609578       -3.0270896484       -1.1008659202
 C         -0.2016835613       -4.3888197649       -0.8119481662
 C         -1.4725789599       -4.2477971649       -1.5931550741
 H         -1.4559528986       -4.4609314733       -2.6514613805
 H         -2.4014798839       -4.5113778120       -1.1087256600
 H          0.6920036718       -4.6992843009       -1.3312502087
 H         -0.2688101659       -4.7476284974        0.2040740668
 H         -0.2484725795       -2.4202206693       -1.8401390195
