  62
        -98.93958625
 C          0.9894030305        1.8845114351        0.0001130780
 C          1.9444787805        1.4670670138        0.9557085386
 C          2.9325812915        0.4843238935        0.4925405716
 C          2.8774116937        0.0329131120       -0.7738030368
 C          3.8465247608       -0.9132250685       -1.4327482400
 C          3.8951624704       -2.3463009257       -0.8692848464
 C          4.9776382991       -2.5733793833        0.1930961846
 H          5.4345845881       -3.5511267876        0.0279542031
 H          5.7672821940       -1.8331683885        0.0583240350
 C          4.4933862183       -2.5459140746        1.6460005676
 H          4.0042575300       -3.4946083184        1.8782771587
 H          5.3706034946       -2.4628592582        2.2913188985
 C          3.5127110207       -1.4271011080        1.9977746504
 H          2.5262526255       -1.6608874307        1.5892906060
 H          3.3990067720       -1.4020476254        3.0835975034
 C          3.9259305307       -0.0306220477        1.4932526640
 H          4.9255970319       -0.0579540199        1.0619903825
 H          3.9300769246        0.6789914865        2.3232798970
 H          2.9160020896       -2.6111028279       -0.4735478813
 H          4.1005838237       -3.0107162878       -1.7098323666
 H          3.5473780689       -0.9500672373       -2.4819277119
 H          4.8455513138       -0.4731895337       -1.3889276145
 O          1.9228557722        0.4397453671       -1.6530724439
 C          0.9519656879        1.3610605232       -1.2925123553
 O          0.1365974084        1.6271578125       -2.1937847729
 O          1.9731008544        1.8996310344        2.1404765153
 C         -0.0619485794        2.9021808766        0.4057262277
 C         -1.4294138563        2.2734321999        0.3069258121
 C         -2.4809384207        2.8200640911       -0.4152420252
 C         -3.6986829751        2.1636579188       -0.4877505235
 C         -3.8978955012        0.9598572349        0.1621948442
 C         -2.8535409405        0.4082631698        0.8947814731
 C         -1.6354312273        1.0651035930        0.9637872300
 H         -0.8219866227        0.6318978958        1.5333290104
 N         -3.0467379268       -0.8204370220        1.5643215157
 S         -3.3135476736       -2.1768817533        0.6209111028
 O         -4.4891260148       -1.9603526675       -0.1819050406
 O         -3.3621423394       -3.2862505396        1.5455424444
 C         -1.8770252215       -2.3322629486       -0.4254199670
 C         -1.7212650783       -1.4634215449       -1.4873403454
 C         -0.5886995894       -1.5699363337       -2.2789360183
 C          0.3596415376       -2.5415102539       -1.9998027513
 C          0.1881879300       -3.4075914578       -0.9303325350
 C         -0.9363369941       -3.2986742641       -0.1287147703
 H         -1.1107317592       -3.9499518446        0.7128624422
 H          0.9244186607       -4.1676555327       -0.7206054932
 H          1.2379348390       -2.6196861908       -2.6208377317
 H         -0.4443206195       -0.8774909829       -3.0928892195
 H         -2.4758251045       -0.7194921559       -1.6856623435
 H         -2.3156602283       -1.0254145494        2.2314405906
 H         -4.8334293864        0.4286789984        0.0983662225
 H         -4.5050054598        2.5970192543       -1.0599084270
 H         -2.3466986858        3.7560572979       -0.9314928153
 H          0.1371815877        3.1223297909        1.4649920234
 C          0.0871202652        4.1787569909       -0.3932646526
 C         -0.3953367967        5.4798002048        0.1730246724
 C          1.0743159314        5.2086297691        0.0645438063
 H          1.6455734662        5.7423303762       -0.6800853017
 H          1.6259049498        5.0003678889        0.9698089243
 H         -0.8325571894        6.2042957857       -0.4972450963
 H         -0.8428464072        5.4620662300        1.1552600769
 H         -0.0063605535        4.0174212672       -1.4610723824
