  62
        -98.93654667
 C         -1.5496856170       -1.4600547217        0.1565664471
 C         -2.6946425743       -1.0197774750        0.8621390921
 C         -3.4352092302        0.1203846671        0.2914926959
 C         -2.9604368645        0.7257764199       -0.8128155144
 C         -3.5003900238        1.8814530576       -1.6300943927
 C         -4.6430409948        2.7447564622       -1.1027511212
 C         -4.2767350620        3.6256486069        0.0918979623
 H         -3.6010000202        4.4130819329       -0.2517921750
 H         -5.1871872596        4.1061157049        0.4564433584
 C         -3.5932981735        2.9102568236        1.2546578361
 H         -2.6408102551        2.4934795575        0.9202262544
 H         -3.3656136797        3.6572843137        2.0202496659
 C         -4.4141906406        1.8042636434        1.9144994224
 H         -5.3808085188        2.2020979008        2.2297085029
 H         -3.8771562407        1.4843831921        2.8119668595
 C         -4.6562461166        0.5553965327        1.0501809101
 H         -5.4971426326        0.6996347128        0.3759321262
 H         -4.9115262966       -0.2711598076        1.7200442889
 H         -5.5067989577        2.1277212569       -0.8734081822
 H         -4.9371695074        3.4073923447       -1.9212140599
 H         -2.6412942697        2.5245979225       -1.8465737000
 H         -3.8083829347        1.4467797815       -2.5873702416
 O         -1.8193696781        0.3001485503       -1.4282365313
 C         -1.0895964135       -0.7931925327       -0.9793893216
 O         -0.0826415670       -1.0403232409       -1.6633385056
 O         -3.0883784026       -1.5573268877        1.9325137630
 C         -0.7623687550       -2.6248680851        0.7301529759
 C          0.7063430630       -2.2804657402        0.7489946806
 C          1.6940938354       -3.0544770067        0.1563825362
 C          3.0173074516       -2.6473792918        0.1871139914
 C          3.3830578781       -1.4632873578        0.7985915072
 C          2.4011056648       -0.6797067984        1.3918147062
 C          1.0811308874       -1.0975507372        1.3758254021
 H          0.3182580134       -0.4815227740        1.8374242067
 N          2.7573728355        0.5445290093        1.9906370872
 S          3.6729365104        1.5951157954        1.0578804098
 O          5.0571997482        1.1965790565        1.1180913631
 O          3.3744691733        2.9131012668        1.5746554373
 C          3.0608752808        1.4216231755       -0.6072039851
 C          3.8485382591        0.8301525915       -1.5725267060
 C          3.3350653723        0.6734232591       -2.8496576713
 C          2.0507432680        1.1064038745       -3.1360805986
 C          1.2730860691        1.7022345464       -2.1559696654
 C          1.7798328579        1.8595479049       -0.8776124676
 H          1.2013631986        2.3191343786       -0.0907974632
 H          0.2685826710        2.0235163325       -2.3804402289
 H          1.6456709908        0.9731686371       -4.1265287741
 H          3.9346425502        0.2074749593       -3.6150413013
 H          4.8421728482        0.5075739546       -1.3074952582
 H          1.9732550478        1.0342935210        2.3969253519
 H          4.4066317230       -1.1260845498        0.8213018390
 H          3.7738373875       -3.2575687770       -0.2820199513
 H          1.4278171309       -3.9654935395       -0.3531414632
 H         -1.1066300133       -2.6996685117        1.7757565473
 C         -1.0633989723       -3.9668864157        0.0805705910
 C         -2.3766192411       -4.2205743175       -0.5957773699
 C         -1.1201227678       -4.1386497210       -1.4068262019
 H         -0.7271475002       -5.0503665678       -1.8325046468
 H         -0.9536025697       -3.2641293291       -2.0154787754
 H         -2.8438875223       -5.1847533220       -0.4617596894
 H         -3.0780614622       -3.4008572512       -0.6532442914
 H         -0.6535707032       -4.7942823669        0.6517562303
