  62
        -98.94135393
 C         -1.8481905118       -1.3485591182        0.6333272674
 C         -1.7836371339       -0.0299465059        1.1532996810
 C         -2.9895669358        0.7938261712        1.0075147047
 C         -4.0828314830        0.2551494795        0.4381171885
 C         -5.3736946722        0.9822616214        0.1977861692
 C         -5.4002622199        1.6267767178       -1.1949999641
 C         -4.1478147702        2.4397919067       -1.5221921274
 H         -3.2923501780        1.7635703235       -1.5898268952
 H         -4.2927107265        2.8744439319       -2.5135765821
 C         -3.8334496907        3.5553883664       -0.5155951240
 H         -3.5728891435        4.4605519653       -1.0679889890
 H         -4.7209494505        3.7818381440        0.0763335268
 C         -2.6616140311        3.2519098154        0.4201358040
 H         -2.3778074315        4.1817119507        0.9205431649
 H         -1.8053147278        2.9177308358       -0.1714099266
 C         -2.9318412147        2.2081578148        1.5119784866
 H         -3.8472748077        2.4650942127        2.0489700962
 H         -2.0995811603        2.2387222072        2.2217214030
 H         -6.2814189197        2.2676038675       -1.2618630949
 H         -5.4990069610        0.8346889248       -1.9408832076
 H         -6.1912435375        0.2629692225        0.2711526590
 H         -5.5033241248        1.7430260743        0.9652023306
 O         -4.1181106571       -1.0169837846       -0.0280229461
 C         -2.9979456892       -1.8430523330        0.0161799394
 O         -3.1814027808       -2.9539870275       -0.5117761763
 O         -0.7572465473        0.4329290488        1.7194814642
 C         -0.5765925629       -2.1694358755        0.7526379282
 C          0.3637784289       -1.8226363463       -0.3740905820
 C         -0.0786933384       -1.7881734114       -1.6931322103
 C          0.7928286455       -1.4564609894       -2.7136791715
 C          2.1120000582       -1.1391310967       -2.4385422342
 C          2.5641898573       -1.1691438774       -1.1244925746
 C          1.6889418606       -1.5185946454       -0.1037536191
 H          2.0526591025       -1.5382048996        0.9121282741
 N          3.9031261353       -0.8770150553       -0.8239195423
 S          4.3177470997        0.0967976898        0.4731981667
 O          5.7310836848        0.3431260011        0.2904161827
 O          3.9379782282       -0.5408429457        1.7071361927
 C          3.4133604469        1.6135615611        0.2274579429
 C          2.1283127322        1.7456823192        0.7124739733
 C          1.4407971148        2.9237665576        0.4644605309
 C          2.0394365919        3.9414616354       -0.2604283284
 C          3.3322902861        3.7925052854       -0.7410164466
 C          4.0252062047        2.6183411367       -0.4987900747
 H          5.0354008137        2.4652543145       -0.8428237394
 H          3.7994704188        4.5861152135       -1.3017250847
 H          1.4967755066        4.8545723212       -0.4484648065
 H          0.4365762683        3.0222772312        0.8450504373
 H          1.6629790082        0.9509012440        1.2727562445
 H          4.4689560264       -0.6481568519       -1.6285194089
 H          2.7886387000       -0.8740049616       -3.2364779962
 H          0.4404071835       -1.4372255597       -3.7339665187
 H         -1.1101850812       -2.0298595898       -1.9057686897
 H         -0.1007491603       -1.8274959361        1.6868924346
 C         -0.8069065419       -3.6661742232        0.8909950756
 C         -0.4823301991       -4.6532015910       -0.1856128743
 C          0.3669891875       -4.5874668466        1.0460518719
 H          0.3032948137       -5.3898256314        1.7654103544
 H          1.3530160031       -4.1561847485        0.9525009239
 H         -1.1527299404       -5.4890210290       -0.3140046663
 H         -0.0677706584       -4.2835798781       -1.1102366858
 H         -1.6806590107       -3.8876947338        1.4947338565
