  62
        -98.93454422
 C         -2.1433734194       -1.2801065804       -0.0299279483
 C         -2.4573715595       -0.0610762412       -0.6766874998
 C         -3.8483274595        0.4160857088       -0.5389864904
 C         -4.7330911895       -0.2986951904        0.1791069104
 C         -6.2069473295       -0.0786534303        0.4486497400
 C         -6.8489450297        1.2868469094        0.2155273684
 C         -6.3473294798        2.3985409005        1.1361447371
 H         -6.8113992299        3.3358122701        0.8211212860
 H         -6.6838661099        2.1868048317        2.1542040373
 C         -4.8326298998        2.5861118607        1.1809658070
 H         -4.6188341500        3.4184262416        1.8571072060
 H         -4.3647640698        1.6976511913        1.6102283480
 C         -4.1700631698        2.8965447692       -0.1602326434
 H         -3.1303783398        3.1683652196        0.0425163364
 H         -4.6571163898        3.7586052186       -0.6202222144
 C         -4.1532020196        1.7405827780       -1.1763898020
 H         -5.0827001796        1.6919858273       -1.7388488720
 H         -3.3465173096        1.9328159473       -1.8899164622
 H         -6.7443268396        1.5812780282       -0.8245912820
 H         -7.9190512297        1.1618621795        0.4026639184
 H         -6.7369841394       -0.8174262110       -0.1629173792
 H         -6.3630430896       -0.3731415690        1.4912467303
 O         -4.3824630794       -1.4709180797        0.7851902818
 C         -3.0951740794       -1.9723173996        0.7212975424
 O         -2.9247138493       -3.0239254489        1.3694787437
 H          1.1945970507       -0.7696991721       -1.6845093587
 C          1.1868198206       -0.3398143609       -0.6952639392
 C          0.2643657205       -0.7777473999        0.2409479513
 C          0.2601538704       -0.1834919784        1.5000145206
 C          1.1415388103        0.8357204220        1.8051668194
 C          2.0508185903        1.2822775910        0.8624887990
 C          2.0676231804        0.6917446095       -0.3936915803
 N          2.9858172305        1.1394474785       -1.3551134208
 S          4.5528449904        1.4765892592       -0.8905429111
 O          4.6149772402        2.7738627599       -0.2642523426
 O          5.3435854005        1.3166847979       -2.0907511609
 C          4.9669468904        0.2131732306        0.3001446704
 C          5.2738587003        0.5626294822        1.5991229300
 C          5.5635908504       -0.4384779467        2.5125948212
 C          5.5382521405       -1.7654751072        2.1135395428
 C          5.2318698706       -2.1007938187        0.8033127031
 C          4.9424983206       -1.1040511999       -0.1139340380
 H          4.7079506707       -1.3304258011       -1.1415499578
 H          5.2147035107       -3.1339599191        0.4954139844
 H          5.7598130205       -2.5439685263        2.8264435137
 H          5.8049150203       -0.1804176755        3.5311728309
 H          5.2817892402        1.6064770825        1.8676643588
 H          2.9432358706        0.6504987675       -2.2361164702
 H          2.7291590402        2.0926414113        1.0744107380
 H          1.1181257802        1.2925304732        2.7830366089
 H         -0.4581440796       -0.5241049976        2.2338455809
 C         -0.7408228893       -1.8656304403       -0.0458422475
 H         -0.7228326093       -2.5711173593        0.8008782633
 C         -0.4133432792       -2.6790199017       -1.2889950666
 C         -1.4807413291       -3.4540102227       -2.0007120057
 C         -0.8471565891       -2.2694334734       -2.6632610371
 H         -0.1717944491       -2.4476164643       -3.4879709168
 H         -1.4214826692       -1.3617801136       -2.7589832482
 H         -1.2413330789       -4.4407074731       -2.3677943245
 H         -2.4936855091       -3.3578524524       -1.6375134259
 H          0.5558363709       -3.1622513916       -1.2083378359
 O         -1.6335796695        0.6096105881       -1.3499886705
