  62
        -98.94330445
 C         -1.9027797896       -1.3208835702       -0.2123889110
 C         -2.2167419601       -0.1485840797       -0.9425079601
 C         -3.6276328303        0.2696091498       -0.9060917297
 C         -4.5195536899       -0.4598777810       -0.2127061000
 C         -5.9686131000       -0.1094582116       -0.0411925396
 C         -6.1875477101        0.7457871974        1.2148480710
 C         -5.2331653305        1.9347213177        1.3284477717
 H         -5.5002765706        2.4804090169        2.2360115422
 H         -4.2143658004        1.5642769479        1.4649127713
 C         -5.2656849210        2.8922368785        0.1290453924
 H         -6.1797859210        2.7366356186       -0.4451275576
 H         -5.2868174513        3.9189419182        0.5005077931
 C         -4.0581447111        2.7818873595       -0.8038191178
 H         -4.0741082415        3.6375701200       -1.4844121072
 H         -3.1351759210        2.8465155694       -0.2212868079
 C         -3.9949416508        1.5139006102       -1.6644957987
 H         -4.9411089008        1.3793725402       -2.1927493087
 H         -3.2036957810        1.6569088710       -2.4065816087
 H         -6.0493681798        0.1118767368        2.0936826606
 H         -7.2185049903        1.1041423071        1.2126975714
 H         -6.3140918503        0.4262765189       -0.9231419492
 H         -6.5375334997       -1.0354745619        0.0567686498
 O         -4.1839680495       -1.5889649014        0.4614699491
 C         -2.8748261093       -2.0367099510        0.4913855086
 O         -2.7048013489       -3.0734642814        1.1639168379
 H          1.0462476597        0.3719684612       -0.7542543402
 C          1.0311455699        0.1445502205        0.2983058796
 C          0.3134644404       -0.9410758001        0.7776283089
 C          0.2723049706       -1.1626276511        2.1525027288
 C          0.9322476105       -0.3187117015        3.0246030593
 C          1.6573827300        0.7569622991        2.5422344699
 C          1.6999380298        0.9920232001        1.1730849601
 N          2.4107791493        2.0922820907        0.6658929408
 S          3.4447860392        1.9084012919       -0.6351147395
 O          4.2575957788        3.1053515822       -0.6167837688
 O          2.7066787591        1.6562854225       -1.8445901296
 C          4.4431147997        0.4934942620       -0.2093857206
 C          5.5683485898        0.6898686818        0.5676593393
 C          6.3167157202       -0.4098420682        0.9541718085
 C          5.9226411806       -1.6822875881        0.5680857776
 C          4.7897238605       -1.8623558579       -0.2101242723
 C          4.0399374501       -0.7656209379       -0.6052816515
 H          3.1563068501       -0.8675150278       -1.2128022414
 H          4.4827533008       -2.8511180178       -0.5116008330
 H          6.5029442309       -2.5389892481        0.8724755269
 H          7.2011565903       -0.2726862183        1.5551822284
 H          5.8430405795        1.6967933617        0.8373565600
 H          2.8420602492        2.6673802103        1.3751499411
 H          2.1746889599        1.4188440088        3.2202559903
 H          0.8880080507       -0.5016996922        4.0874963092
 H         -0.3029634290       -1.9977658615        2.5272271783
 C         -0.4794165295       -1.8541928797       -0.1259789016
 H         -0.5624423391       -2.8290097301        0.3734954677
 C          0.1382186404       -2.0716338286       -1.4908359518
 C          1.2590994507       -3.0555998281       -1.6351591227
 C         -0.0985073592       -3.3807987582       -2.1802374727
 H         -0.2401716594       -3.3812964775       -3.2506598527
 H         -0.6969404889       -4.1157051787       -1.6612133331
 H          2.0495656806       -2.8386237773       -2.3379111426
 H          1.5835979810       -3.5746218686       -0.7458220831
 H          0.1556609300       -1.1843557781       -2.1108542412
 O         -1.3791937505        0.5230690110       -1.5992531798
