  62
        -98.93603635
 C         -2.4945418515       -0.1633740319       -0.5868424540
 C         -2.1651888113       -0.6677743843        0.6950763039
 C         -1.7340444074       -2.0735595981        0.7358028670
 C         -1.6658882207       -2.7781396420       -0.4075208444
 C         -1.2363112879       -4.2131194477       -0.5130009102
 C          0.2679990941       -4.3396795176       -0.7842822851
 C          1.1412783436       -3.5199021788        0.1655832977
 H          2.1829396192       -3.7394652486       -0.0817697978
 H          0.9888236980       -2.4552656199       -0.0286497927
 C          0.8991452266       -3.7975198255        1.6558883911
 H          0.3917215670       -4.7556016858        1.7794389486
 H          1.8669745745       -3.8743733421        2.1555530502
 C          0.1114149592       -2.7017111574        2.3774255055
 H          0.5381059106       -1.7277515696        2.1264293294
 H          0.2257585199       -2.8503490702        3.4548280923
 C         -1.3927631295       -2.6540226026        2.0791064889
 H         -1.8250493898       -3.6514449275        2.1901926370
 H         -1.8578546788       -1.9920810174        2.8154903047
 H          0.5412442110       -5.3947025349       -0.7138137207
 H          0.4665680555       -4.0025416447       -1.8046322531
 H         -1.4935349737       -4.7287574909        0.4104125573
 H         -1.7836603030       -4.6712058297       -1.3391902846
 O         -1.9737446906       -2.2524134832       -1.6229470759
 C         -2.3786182090       -0.9341206801       -1.7413664135
 O         -2.6179844428       -0.5721356119       -2.9140640928
 H         -0.4103891848        1.2035111226       -1.1887914001
 C         -0.6261216224        1.9540076644       -0.4401266777
 C         -1.9479045604        2.1712834911       -0.0546258900
 C         -2.1828540704        3.1514193714        0.9003789720
 C         -1.1305373834        3.8602785767        1.4586735072
 C          0.1785318898        3.6018847268        1.1040745302
 C          0.4296521263        2.6291610862        0.1433443473
 N          1.7429008387        2.3113313487       -0.2571144389
 S          2.0586607710        0.6569941367       -0.4427292981
 O          1.7136924064        0.2645138977       -1.7876520704
 O          1.4368465108       -0.0838518166        0.6281966908
 C          3.8324079107        0.6346586322       -0.2578132239
 C          4.3875852519        0.2102311220        0.9341671418
 C          5.7666834047        0.2275514486        1.0747161715
 C          6.5615787784        0.6694879993        0.0280221773
 C          5.9894575751        1.0911540108       -1.1633683710
 C          4.6117423917        1.0749023495       -1.3110888130
 H          4.1214714761        1.3831169702       -2.2198617537
 H          6.6107357990        1.4310499066       -1.9760918033
 H          7.6341607267        0.6826089148        0.1399707589
 H          6.2138434904       -0.1034785459        1.9980948826
 H          3.7286380595       -0.1302515114        1.7168317091
 H          2.4383545991        2.7439918614        0.3371945390
 H          0.9951133040        4.1369290708        1.5647019478
 H         -1.3400632947        4.6136292296        2.2031964914
 H         -3.1767658971        3.3659654407        1.2473875702
 C         -2.9489490904        1.2832458376       -0.7569051127
 H         -2.8425137599        1.4911472896       -1.8361242454
 C         -4.4415777304        1.3479536998       -0.4690494624
 C         -5.0579438081        1.5425683694        0.8801894116
 C         -5.2297487099        2.5905745059       -0.1806679716
 H         -6.2012999349        2.6787421730       -0.6445601285
 H         -4.7088782037        3.5294674752       -0.0941053964
 H         -4.3966765232        1.7161838974        1.7131687726
 H         -5.9107777500        0.9294168261        1.1338620322
 H         -4.9407022163        0.6226045055       -1.1095621355
 O         -2.2439907097        0.0092341607        1.7516130819
