  62
        -98.93798412
 C          2.0245794995        1.0099245891       -0.3478591062
 C          2.7261890906        0.5442545958        0.7942748843
 C          3.2272296390       -0.8336824978        0.7460548080
 C          2.9644742321       -1.5838673916       -0.3391002197
 C          3.4371900357       -2.9939799530       -0.5428874196
 C          4.7937122995       -3.0288104264       -1.2606138006
 C          5.8393788783       -2.0975724489       -0.6471251359
 H          6.7629413020       -2.2262679447       -1.2155579849
 H          5.5175445855       -1.0628729388       -0.7854091009
 C          6.1153719375       -2.3470020287        0.8421775055
 H          5.7537360109       -3.3361442375        1.1249241288
 H          7.1951251574       -2.3369647491        1.0045499783
 C          5.5136679831       -1.3005319378        1.7819645510
 H          5.7964216482       -0.3000532975        1.4454059696
 H          5.9463416208       -1.4466496921        2.7751638761
 C          3.9882290083       -1.3418013021        1.9385427242
 H          3.6710581307       -2.3554112850        2.1927086805
 H          3.7197537249       -0.6794082607        2.7667174639
 H          5.1645677924       -4.0553186349       -1.2478939591
 H          4.6408535569       -2.7348095254       -2.3016477834
 H          3.5121487644       -3.4876609653        0.4242283517
 H          2.6971755143       -3.5171960323       -1.1511049471
 O          2.2720848905       -1.1165664171       -1.4066774658
 C          1.7772724576        0.1847298123       -1.4463926401
 O          1.1773413677        0.4489878163       -2.5041405073
 H         -0.5490398172        0.6310830532       -0.2607418163
 C         -0.7194594595        1.4304724374        0.4455264313
 C          0.2249142170        2.4368007746        0.5882302985
 C         -0.0109485096        3.4504462774        1.5096239744
 C         -1.1750596650        3.4620711209        2.2572831130
 C         -2.1206704355        2.4655029877        2.1019915029
 C         -1.8843480519        1.4343217227        1.1979948873
 N         -2.8011307948        0.3794880516        1.0710453957
 S         -2.8703613596       -0.5093914748       -0.3601930535
 O         -1.7796727470       -1.4518538531       -0.3729760476
 O         -2.9872682873        0.3814474528       -1.4923510692
 C         -4.4079060143       -1.3751086086       -0.1020954460
 C         -5.5681317412       -0.8863607792       -0.6721482301
 C         -6.7622541240       -1.5499489588       -0.4368773151
 C         -6.7764183787       -2.6827730184        0.3627552228
 C         -5.6036700521       -3.1624820742        0.9271490615
 C         -4.4064132826       -2.5045453674        0.6945983453
 H         -3.4684680773       -2.8439206126        1.1025812070
 H         -5.6174712012       -4.0453526156        1.5456327718
 H         -7.7066365581       -3.1971808043        0.5449489121
 H         -7.6746222160       -1.1815011975       -0.8773067204
 H         -5.5062249395       -0.0075520152       -1.2936765514
 H         -3.7199105161        0.6011496717        1.4288443674
 H         -3.0284466353        2.4722815140        2.6853632850
 H         -1.3489781788        4.2557401345        2.9677745057
 H          0.7317771617        4.2223375071        1.6474210660
 C          1.4810617131        2.4244403522       -0.2482827752
 H          2.2447896380        2.9928010702        0.3088076677
 C          1.2868188378        3.1186741154       -1.5869479442
 C         -0.0425928491        3.2273820533       -2.2649081572
 C          0.5908674170        4.4455755687       -1.6668009306
 H          0.9917499177        5.1954633410       -2.3317278756
 H          0.1552320910        4.8400328027       -0.7617080393
 H         -0.0646465466        3.1176103642       -3.3383799738
 H         -0.9011935296        2.7894121518       -1.7777165301
 H          2.1427099690        2.9777108274       -2.2391642099
 O          2.9274298303        1.2627591949        1.8112394894
