  62
        -98.93636970
 C         -2.6070506614       -1.2355573020        0.2527955909
 C         -2.7751044517       -0.2923411721       -0.7881930901
 C         -3.8461430581        0.7046455093       -0.6036493880
 C         -4.5986419254        0.6788011088        0.5087045333
 C         -5.7610799441        1.5636714644        0.8834658166
 C         -5.6296348559        3.0672457965        0.6054296725
 C         -4.2080061942        3.6313236813        0.7421195453
 H         -3.5579113517        2.8960917337        1.2195875712
 H         -4.2358851807        4.5101594550        1.3888878623
 C         -3.6013103358        4.0542958102       -0.5979465243
 H         -2.7886479329        4.7597734264       -0.4088077909
 H         -4.3629113578        4.5809210708       -1.1771619376
 C         -3.0267709226        2.9189945894       -1.4441789293
 H         -2.1215353519        2.5275836424       -0.9715004631
 H         -2.7288841240        3.3358950732       -2.4094688972
 C         -3.9746069171        1.7334523505       -1.6905170783
 H         -3.6627688390        1.2390118983       -2.6145312337
 H         -5.0022706333        2.0681679388       -1.8075300494
 H         -6.2918598733        3.5756423251        1.3082103147
 H         -6.0044373772        3.2880728672       -0.3930339890
 H         -5.9054105835        1.4011059700        1.9542931964
 H         -6.6533893882        1.1831534122        0.3777223436
 O         -4.4045053761       -0.2478151473        1.4885254028
 C         -3.4208258313       -1.2120997449        1.3901907555
 O         -3.3709098550       -1.9888754748        2.3646207723
 O         -2.0839871658       -0.2619613303       -1.8426754609
 C         -1.5657162469       -2.3441659013        0.2259219661
 C         -0.1875468636       -1.8337900010        0.5755773979
 C          0.4773558811       -2.3014169894        1.7031373101
 C          1.7501012163       -1.8514806838        2.0076623141
 C          2.3835315724       -0.9253738583        1.1984208783
 C          1.7270150044       -0.4498143070        0.0708800686
 C          0.4535808875       -0.9082133604       -0.2354878855
 H         -0.0549856496       -0.5321972135       -1.1111195762
 N          2.3510109188        0.5094586062       -0.7469013713
 S          3.9013347589        0.1822452320       -1.3015511725
 O          4.0521679113        0.9734321087       -2.5031278026
 O          4.1274794812       -1.2385423240       -1.4354701019
 C          4.9603079210        0.8496686785       -0.0348436213
 C          4.8050699802        2.1774939486        0.3121181152
 C          5.6295149059        2.7146935847        1.2877730845
 C          6.5920218848        1.9208629758        1.8939379548
 C          6.7378682634        0.5905393780        1.5317124708
 C          5.9154535856        0.0466853393        0.5571543089
 H          5.9881820471       -0.9835787267        0.2471457008
 H          7.4867704271       -0.0248007113        2.0038761212
 H          7.2323782012        2.3419766199        2.6528870886
 H          5.5191586593        3.7487863596        1.5721553998
 H          4.0478034929        2.7604939977       -0.1851123209
 H          1.7629384224        0.8271317613       -1.5045456382
 H          3.3741484534       -0.5705185443        1.4317299610
 H          2.2542960119       -2.2244697968        2.8860620369
 H         -0.0153381202       -3.0159811787        2.3465984143
 H         -1.8690366606       -3.0473016583        1.0130842751
 C         -1.5371974330       -3.0924955368       -1.0938811818
 C         -0.9786106983       -4.4816696561       -1.1287813648
 C         -2.4518845571       -4.2611054001       -1.2946946276
 H         -2.8917301865       -4.4093025584       -2.2695237931
 H         -3.1034463026       -4.5315279989       -0.4762542762
 H         -0.4014440523       -4.7827912320       -1.9896815309
 H         -0.6314657310       -4.9046415460       -0.1981825230
 H         -1.3529349954       -2.4543745455       -1.9480821506
