  62
        -98.94521418
 C          2.6114403131        1.1424340138        0.3202129123
 C          2.6390617644        0.3747887978       -0.8694608634
 C          3.3742537286       -0.8964685930       -0.7933512860
 C          3.9584561807       -1.2536931485        0.3648595788
 C          4.6904645875       -2.5434180913        0.5956564850
 C          3.7465558865       -3.6307222617        1.1279339074
 C          2.4549915220       -3.7773254762        0.3225483703
 H          1.8816631704       -4.5929215399        0.7692280843
 H          1.8544369649       -2.8705473057        0.4334455834
 C          2.6671254166       -4.0601642128       -1.1712510946
 H          1.9838057702       -4.8555604369       -1.4760579215
 H          3.6825694870       -4.4210846317       -1.3393549950
 C          2.3948382610       -2.8657742502       -2.0878982028
 H          1.4113760527       -2.4445272634       -1.8593021274
 H          2.3594304549       -3.2303052437       -3.1181032221
 C          3.4316389125       -1.7359958332       -2.0382200370
 H          4.4323191748       -2.1494815800       -2.1796303794
 H          3.2182340460       -1.0555108819       -2.8677026879
 H          4.2821649438       -4.5816223855        1.1323988362
 H          3.4805856425       -3.3855346191        2.1588229065
 H          5.1458136507       -2.8681321904       -0.3376747730
 H          5.4762775831       -2.3656405648        1.3316898834
 O          3.9039291616       -0.4925353884        1.4880988785
 C          3.2184239501        0.7120077550        1.4990349034
 O          3.2174448858        1.2936536329        2.6036387029
 O          2.0820557880        0.7306843160       -1.9401129511
 C          1.8608783612        2.4624522029        0.3518536236
 C          0.4057001265        2.2227283254        0.0277007427
 C         -0.3054001862        2.9525277976       -0.9148163824
 C         -1.6338011523        2.6576248764       -1.1709943975
 C         -2.2816659438        1.6420341223       -0.4926659729
 C         -1.5812992956        0.9095908205        0.4573727033
 C         -0.2525239997        1.2082071004        0.7125397046
 H          0.2942613592        0.6342275340        1.4521192200
 N         -2.2333145348       -0.1170277261        1.1653785659
 S         -3.0358926946       -1.2944723575        0.2731140281
 O         -3.0571160151       -2.4628087609        1.1267124388
 O         -2.4486275273       -1.4639812442       -1.0355249402
 C         -4.6901601448       -0.6523502645        0.1287792211
 C         -5.3737193693       -0.3533961123        1.2911458843
 C         -6.6618941649        0.1487618374        1.1994357656
 C         -7.2425712234        0.3391593746       -0.0457871817
 C         -6.5447637059        0.0295770104       -1.2031632416
 C         -5.2549504126       -0.4718289893       -1.1184497456
 H         -4.6715355481       -0.7210165842       -1.9906481051
 H         -6.9979202195        0.1774523626       -2.1701969237
 H         -8.2450861526        0.7309504280       -0.1146252338
 H         -7.2076213588        0.3904198677        2.0972464785
 H         -4.8872247328       -0.5203032670        2.2376334981
 H         -1.6515884726       -0.5502316525        1.8684075255
 H         -3.3137823267        1.4065794058       -0.6943609120
 H         -2.1724569505        3.2276418757       -1.9124846722
 H          0.1828257443        3.7443569213       -1.4583268696
 H          1.9227913003        2.8221120477        1.3895470469
 C          2.5301238837        3.4732108125       -0.5549825959
 C          2.4146025204        4.9382939992       -0.2629732049
 C          3.7161287836        4.2300538901       -0.0402106778
 H          4.5350971354        4.4264510851       -0.7156729779
 H          4.0269433491        4.0322821228        0.9756164554
 H          2.3429429249        5.6255312441       -1.0923447981
 H          1.8431956172        5.2312625834        0.6047233896
 H          2.5510706612        3.1540313706       -1.5904727047
