  62
        -98.94072582
 C         -2.6427658691       -0.1227547489       -0.1787951950
 C         -2.5305703152       -1.3189453474       -0.9312712649
 C         -1.9430610914       -2.4699400324       -0.2400454218
 C         -1.5489474285       -2.3462593809        1.0400812799
 C         -0.8877561744       -3.4127118549        1.8693237295
 C          0.6298897758       -3.4860157464        1.6468332411
 C          1.0594819484       -4.1320615272        0.3282103938
 H          0.5424199767       -5.0844741736        0.2032132543
 H          2.1267149304       -4.3478191020        0.4109989103
 C          0.8292515412       -3.2491822376       -0.9066340005
 H          1.7157273080       -3.2798385135       -1.5458520471
 H          0.6992366492       -2.2125813087       -0.5840272336
 C         -0.3597921049       -3.6642118085       -1.7743589661
 H         -0.1661712071       -4.6458627857       -2.2132106000
 H         -0.4562170265       -2.9434326998       -2.5906698076
 C         -1.7024454516       -3.7189986595       -1.0341911235
 H         -1.7395683590       -4.5933690720       -0.3850646460
 H         -2.4992139028       -3.7991621598       -1.7780933205
 H          1.0554744922       -4.0647271096        2.4701973269
 H          1.0338604682       -2.4713199924        1.7027328573
 H         -1.3408088787       -4.3828539687        1.6622987336
 H         -1.0720057954       -3.1552592229        2.9145269179
 O         -1.7152048046       -1.1985782305        1.7451359808
 C         -2.1906125946       -0.0438103859        1.1418847118
 O         -2.1796612522        0.9525402843        1.8893923697
 O         -2.8802716750       -1.4106008397       -2.1400046525
 C         -3.0459097501        1.1393654765       -0.9285757730
 C         -1.9345386293        2.1384627820       -0.7255300660
 C         -2.0876418285        3.3961015885       -0.1602982485
 C         -0.9788318722        4.1807418738        0.1136991666
 C          0.3002620458        3.7242748989       -0.1499138713
 C          0.4577033067        2.4787225264       -0.7392127577
 C         -0.6507883376        1.7125559680       -1.0457263393
 H         -0.5150426865        0.7299858414       -1.4838104943
 N          1.7694235321        1.9505368842       -0.9363455357
 S          2.1946586470        1.0616430053        0.4491899387
 O          1.3570168964       -0.1118287857        0.5710882404
 O          2.2071830050        1.9712043334        1.5661019566
 C          3.8627190556        0.5729218908        0.0489290837
 C          4.1373224354       -0.7448852208       -0.2598202687
 C          5.4353370575       -1.0976470633       -0.5959502722
 C          6.4283605742       -0.1305439772       -0.6214257227
 C          6.1359413929        1.1894942285       -0.3104419797
 C          4.8412688702        1.5481628940        0.0282836000
 H          4.5665436121        2.5577517332        0.2842707700
 H          6.9113291909        1.9381281280       -0.3309079261
 H          7.4369998399       -0.4076968564       -0.8844027526
 H          5.6646503305       -2.1233273586       -0.8362950201
 H          3.3333343646       -1.4629986364       -0.2232082431
 H          1.7702140799        1.2916957204       -1.7071431903
 H          1.1717756250        4.3004155917        0.1140358801
 H         -1.1134329830        5.1496198011        0.5703378048
 H         -3.0720484720        3.7454496422        0.1061995205
 H         -3.0428866942        0.8316565212       -1.9884010361
 C         -4.4369731427        1.6777285415       -0.6457573644
 C         -5.5318306988        0.7632338073       -0.1854247141
 C         -4.9963878599        1.8147422024        0.7371582965
 H         -5.6200037198        2.6710329891        0.9498133130
 H         -4.3716702300        1.5121234077        1.5619448423
 H         -6.5202094022        0.8924467714       -0.6001317888
 H         -5.2683462708       -0.2663372026        0.0102329295
 H         -4.7218903616        2.4446467886       -1.3599916271
