  62
        -98.93920067
 C         -0.8012167382       -1.2117551308        0.3214028162
 C         -1.5627078539       -0.5607580004        1.3219484332
 C         -2.4672666890        0.5116400100        0.8728334348
 C         -2.4883148341        0.8400923167       -0.4303772068
 C         -3.4189385303        1.8029287613       -1.1149542986
 C         -4.6587666404        1.0633580130       -1.6481616434
 C         -5.8136411648        0.9373236376       -0.6555883853
 H         -6.2658572275        1.9196457859       -0.5036245351
 H         -6.5694738090        0.2968823940       -1.1160257664
 C         -5.4442021857        0.3538750477        0.7106477423
 H         -4.7762604280       -0.4995804436        0.5791479824
 H         -6.3591883436       -0.0219632334        1.1728072308
 C         -4.7986853634        1.3810175556        1.6525373305
 H         -5.3131251277        1.3618790516        2.6156093260
 H         -4.9457863924        2.3807417265        1.2441835194
 C         -3.3069498631        1.1545306626        1.9428189778
 H         -2.8476147883        2.1094138146        2.2206590148
 H         -3.2022238366        0.4960757812        2.8110810772
 H         -5.0296021319        1.5911469809       -2.5290369755
 H         -4.3429297467        0.0685664533       -1.9724667527
 H         -3.7033332309        2.6108628399       -0.4474634307
 H         -2.8735529217        2.2169947939       -1.9639765903
 O         -1.6648528904        0.2589836588       -1.3422272453
 C         -0.7910215441       -0.7610901079       -0.9994715301
 O         -0.0864012151       -1.1589902948       -1.9435912204
 O         -1.5055316747       -0.8761429416        2.5420361902
 C          0.0687746229       -2.3813326854        0.7434795737
 C          1.4534675702       -2.2448417515        0.1661271272
 C          2.0147027694       -3.1540499947       -0.7206617164
 C          3.2913571564       -2.9509405453       -1.2138098187
 C          4.0288246495       -1.8431325747       -0.8401187821
 C          3.4760804572       -0.9286985985        0.0501265506
 C          2.2017099379       -1.1385958233        0.5500325207
 H          1.7817451891       -0.4298749049        1.2498764810
 N          4.2034407537        0.1984272439        0.4573662081
 S          3.4401010663        1.5888173516        0.9522745317
 O          4.4571048374        2.6127393891        0.8275551479
 O          2.8939745251        1.4185581915        2.2762346843
 C          2.1323298047        1.9363490193       -0.2108727508
 C          0.9721307929        2.5109296324        0.2666823536
 C         -0.0078048471        2.8968058640       -0.6326537227
 C          0.1831280261        2.6881669378       -1.9892786467
 C          1.3441720703        2.0915702973       -2.4526549651
 C          2.3348141590        1.7201321086       -1.5587042885
 H          3.2492214871        1.2636599661       -1.9006781243
 H          1.4804122213        1.9135067600       -3.5069932986
 H         -0.5792534338        2.9871496017       -2.6911471684
 H         -0.9153393214        3.3530251307       -0.2705118546
 H          0.8569568800        2.6402162052        1.3317140359
 H          5.0572644742        0.3788892365       -0.0485891893
 H          5.0219974432       -1.6824640189       -1.2305642530
 H          3.7148005169       -3.6610911065       -1.9076542058
 H          1.4444848807       -4.0086907251       -1.0446500787
 H          0.1521519488       -2.2804924916        1.8389704258
 C         -0.5619244881       -3.7412522383        0.4787445759
 C         -2.0503123310       -3.9163967870        0.4921348684
 C         -1.2916832209       -4.0544785779       -0.7918762429
 H         -1.1811823739       -5.0417934041       -1.2159335476
 H         -1.3742049209       -3.2700131690       -1.5276915564
 H         -2.4587467352       -4.8048147331        0.9499729346
 H         -2.6560728585       -3.0337200581        0.6377947473
 H          0.0180821586       -4.5467766213        0.9187921052
