  62
        -98.93633095
 C         -1.7538066646       -1.1720779386        0.3451824961
 C         -2.1422502390       -0.1083796792       -0.5030532093
 C         -3.5849221697        0.0062092253       -0.7659381174
 C         -4.4351879617       -0.8858817536       -0.2267136000
 C         -5.9251108587       -0.9523485148       -0.4367518865
 C         -6.7454523420        0.2323711503        0.1088569766
 C         -7.0224939874        1.3365525893       -0.9188287625
 H         -6.9696400319        0.9062970187       -1.9196501500
 H         -8.0459588638        1.6925023513       -0.7844268231
 C         -6.1095863575        2.5641019184       -0.8418404579
 H         -6.4297192331        3.1954358235       -0.0097815963
 H         -6.2436881690        3.1391463468       -1.7606610314
 C         -4.6199086891        2.2772692834       -0.6512358001
 H         -4.4311828686        1.9827181419        0.3839571570
 H         -4.0690959339        3.2066147805       -0.8105506099
 C         -4.0521541091        1.1814329421       -1.5741633477
 H         -4.7949666191        0.8731849333       -2.3086118612
 H         -3.1770523171        1.5601608847       -2.1066228442
 H         -6.2495275946        0.6447397329        0.9871071137
 H         -7.7033610377       -0.1726862300        0.4388456907
 H         -6.2473059280       -1.8681787841        0.0629160983
 H         -6.1228128309       -1.0677235749       -1.5048294180
 O         -4.0154613517       -1.9026810504        0.5755624504
 C         -2.6770226204       -2.0626746903        0.8923578751
 O         -2.4391589147       -3.0184542913        1.6582196617
 O         -1.3300450546        0.7022280209       -1.0209835972
 C         -0.2881441328       -1.3788664568        0.6806592449
 C          0.3049537224       -0.1173921514        1.2583400142
 C         -0.3852384745        0.5516094917        2.2661537414
 C          0.1235692311        1.7080614092        2.8231454237
 C          1.3346279393        2.2199220838        2.3916108442
 C          2.0409672801        1.5516524519        1.3991481921
 C          1.5296372119        0.3847890044        0.8461233155
 H          2.0875655751       -0.1111646682        0.0699267014
 N          3.2953330213        2.0194065242        0.9892444349
 S          3.8856293592        1.7811187453       -0.5538845895
 O          4.9898145396        2.7136865942       -0.6519521454
 O          2.8647293287        1.9070337144       -1.5664074709
 C          4.5406642784        0.1250596722       -0.5361116245
 C          4.4614298272       -0.6319002915       -1.6881284629
 C          5.0157008375       -1.9026539943       -1.6970626128
 C          5.6358143528       -2.3925822187       -0.5580514443
 C          5.7070148642       -1.6195293741        0.5907413097
 C          5.1601584109       -0.3463072238        0.6044079619
 H          5.1983163637        0.2800169404        1.4797768557
 H          6.1879244849       -2.0048917964        1.4752948735
 H          6.0629821281       -3.3828735243       -0.5665811367
 H          4.9606690888       -2.5041627778       -2.5907616460
 H          3.9575025400       -0.2167764960       -2.5468507846
 H          3.5707751489        2.9127062602        1.3689316076
 H          1.7296426493        3.1288718603        2.8190909778
 H         -0.4287888295        2.2207939048        3.5964042146
 H         -1.3352343499        0.1551737272        2.5990325324
 H         -0.2635120570       -2.1552523133        1.4598668619
 C          0.4549911390       -1.8915905070       -0.5358146208
 C          1.6324588477       -2.8033791104       -0.3692657058
 C          0.3362158629       -3.3414409066       -0.8942146437
 H          0.2712825356       -3.6104441091       -1.9377587506
 H         -0.2647229060       -3.9617459414       -0.2450462619
 H          2.4624548629       -2.7040543695       -1.0522375389
 H          1.9195852726       -3.0678302821        0.6370394748
 H          0.4706155430       -1.1727946034       -1.3481942262
