  62
        -98.93681299
 C         -2.4350882540       -1.1082752481        0.0078027640
 C         -3.4411778888       -0.5973621457        0.8700374598
 C         -4.4672028577        0.2666063624        0.2656092957
 C         -4.4111349237        0.5264876410       -1.0514603548
 C         -5.3623584453        1.3363232813       -1.8967591287
 C         -5.9010054334        2.6451119991       -1.3051308701
 C         -4.9125390633        3.4048710033       -0.4084992530
 H         -3.9145358695        2.9730122422       -0.5019740819
 H         -4.8517069242        4.4412393845       -0.7457615119
 C         -5.3275695864        3.4134294749        1.0646207711
 H         -6.4015618761        3.6024430461        1.1251634068
 H         -4.8210934147        4.2408075848        1.5673405718
 C         -4.9986569116        2.1410944039        1.8444280803
 H         -3.9167463427        2.0581170536        1.9794145269
 H         -5.4390547761        2.2334990291        2.8400573528
 C         -5.4905557987        0.8303397172        1.2091114704
 H         -5.6020368582        0.0914763979        2.0072572569
 H         -6.4543226747        0.9642775263        0.7240606497
 H         -6.1880660535        3.2760613905       -2.1481361826
 H         -6.8105744350        2.4435814479       -0.7412655025
 H         -6.2047025760        0.6931472433       -2.1683821178
 H         -4.8127698171        1.5494181781       -2.8170154573
 O         -3.4275495654        0.0181261553       -1.8444143536
 C         -2.4237439676       -0.8001592199       -1.3511902431
 O         -1.6131230446       -1.1643479810       -2.2286985410
 O         -3.4901189635       -0.8699916646        2.0985324684
 C         -1.3998169976       -2.0221483503        0.6412043278
 C         -0.0883230651       -1.3177755239        0.8972979455
 C          0.4004133416       -1.1748136171        2.1907117351
 C          1.6197282948       -0.5615983618        2.4201038120
 C          2.3742814503       -0.0767249926        1.3670309846
 C          1.8926436439       -0.2096487684        0.0712129545
 C          0.6727178634       -0.8301823526       -0.1558494563
 H          0.3018936852       -0.9278121651       -1.1657235646
 N          2.6436736467        0.2989790883       -1.0059980986
 S          4.2199505177       -0.2602827979       -1.1755510748
 O          4.5410230111       -0.0851046782       -2.5751231787
 O          4.3661138983       -1.5962595553       -0.6445457206
 C          5.1871389979        0.8840335985       -0.2129795995
 C          5.9769843548        0.4183853560        0.8199894315
 C          6.7292536757        1.3257990112        1.5497541412
 C          6.6792015264        2.6750577382        1.2346307108
 C          5.8827653305        3.1262081181        0.1924137650
 C          5.1293142664        2.2242885728       -0.5417954112
 H          4.5017500518        2.5320773972       -1.3615749123
 H          5.8466950459        4.1761135352       -0.0499614337
 H          7.2646655704        3.3795258276        1.8040952799
 H          7.3494825311        0.9769937895        2.3597341687
 H          5.9798502307       -0.6390240597        1.0311383789
 H          2.1564800589        0.2326153279       -1.8889364937
 H          3.3240599341        0.4028702921        1.5389643776
 H          1.9863913420       -0.4588033557        3.4299346208
 H         -0.1875981283       -1.5419473260        3.0192689183
 H         -1.8250704468       -2.2961262684        1.6161840978
 C         -1.1667718805       -3.2944532385       -0.1517645698
 C         -0.5995158326       -4.4923884187        0.5463269169
 C         -2.0316898666       -4.4901622533        0.1043401374
 H         -2.3168074995       -5.1077941904       -0.7340868518
 H         -2.7982111800       -4.3991602891        0.8600870256
 H          0.1050202329       -5.1123870168        0.0133197535
 H         -0.3952518646       -4.4047166820        1.6026330802
 H         -0.8583395892       -3.1152034108       -1.1738622401
