  62
        -98.94342584
 C          1.9519292182        0.8577966131        0.0444728980
 C          2.2424708650       -0.1093389493        1.0341361770
 C          2.5417712003       -1.4608906764        0.5458361726
 C          2.4814567544       -1.7099185276       -0.7752498554
 C          2.8029245553       -3.0296667195       -1.4138585874
 C          4.2857579447       -3.1144492665       -1.8026495148
 C          5.2420565183       -2.7104144896       -0.6806219831
 H          6.2588141508       -2.8362532616       -1.0585988945
 H          5.1074865811       -1.6481974665       -0.4642064196
 C          5.0749984898       -3.5155679191        0.6155420574
 H          4.5261258993       -4.4356413413        0.4121449001
 H          6.0635820672       -3.8006353067        0.9812642004
 C          4.3836322653       -2.7555511078        1.7489846898
 H          4.8726678993       -1.7890439214        1.8945387068
 H          4.5103488298       -3.3289788036        2.6710866258
 C          2.8800727121       -2.5098353890        1.5676924792
 H          2.3760525638       -3.4503316935        1.3341366068
 H          2.4843525658       -2.1385318414        2.5180350508
 H          4.5014973080       -4.1370902894       -2.1171606193
 H          4.4574744331       -2.4522603091       -2.6542189257
 H          2.5489646071       -3.8310259528       -0.7225886059
 H          2.1914805207       -3.1319348728       -2.3119819220
 O          2.1661276797       -0.7630668325       -1.6951869603
 C          1.8926156119        0.5411119821       -1.3124429767
 O          1.6215211536        1.3078231669       -2.2566047264
 O          2.2529748368        0.1481038976        2.2704508828
 C          1.6244551952        2.2745691772        0.4723974132
 C          0.2371725807        2.6688660220        0.0250111732
 C         -0.0909536802        3.9675511948       -0.3444890634
 C         -1.3854531168        4.2828839077       -0.7198115677
 C         -2.3749303432        3.3182819623       -0.7361861067
 C         -2.0557032323        2.0132359810       -0.3736724910
 C         -0.7633882828        1.7056377634        0.0170188887
 H         -0.5310754556        0.6916996270        0.3102123675
 N         -3.0280172612        1.0023282407       -0.4354704654
 S         -2.8346630033       -0.4359179093        0.4126425846
 O         -2.5979544042       -0.1710647226        1.8153875042
 O         -1.8559738840       -1.2530865623       -0.2617513738
 C         -4.4597204204       -1.1349914668        0.1902766920
 C         -4.7624068781       -1.7272777921       -1.0214284880
 C         -6.0322610358       -2.2474022276       -1.2143961783
 C         -6.9736156248       -2.1665363330       -0.1986684961
 C         -6.6550691964       -1.5707102206        1.0122488599
 C         -5.3868421419       -1.0475515545        1.2113476053
 H         -5.0902083818       -0.5824703152        2.1376498947
 H         -7.3876361558       -1.5119023128        1.8009285590
 H         -7.9608052151       -2.5730114000       -0.3514837768
 H         -6.2823141722       -2.7133552782       -2.1538475217
 H         -3.9948820676       -1.7735974841       -1.7766611284
 H         -3.9765322627        1.3481616626       -0.4023506868
 H         -3.3817739134        3.5642011226       -1.0363284017
 H         -1.6266172303        5.2959629252       -1.0038599056
 H          0.6683375634        4.7324266101       -0.3398685035
 H          1.6313283916        2.2561806750        1.5738629946
 C          2.6985942309        3.2315595196       -0.0057970031
 C          3.0830170198        4.4226193071        0.8188509278
 C          4.0143710853        3.2541375820        0.7111277952
 H          4.9176402598        3.3614082214        0.1296114800
 H          4.1201437104        2.6024616117        1.5665090143
 H          3.3507638645        5.3364836404        0.3101972616
 H          2.5668617556        4.5705433384        1.7554995448
 H          2.7145496722        3.3258636477       -1.0859126486
