  62
        -98.93905419
 C         -1.0589270001       -1.2809288798        0.5812514806
 C         -1.6778188602       -0.9152696197       -0.6383179493
 C         -2.5878775501        0.2410228303       -0.5737320090
 C         -2.7101475900        0.9206275502        0.5801475210
 C         -3.6752499199        2.0448262802        0.8302336313
 C         -5.0906182199        1.4737329802        1.0541086514
 C         -6.1037730900        1.8585426504       -0.0245811885
 H         -6.9870938900        1.2326551804        0.1194187916
 H         -6.4082512400        2.8961330604        0.1282335617
 C         -5.6263694302        1.7203044405       -1.4738240885
 H         -6.5160488103        1.7654938106       -2.1056563384
 H         -5.0121027402        2.5810307706       -1.7425152485
 C         -4.8510434703        0.4395129206       -1.8086202588
 H         -5.1534479804        0.1115504907       -2.8052724988
 H         -5.1153988002       -0.3614710795       -1.1178090188
 C         -3.3196964203        0.6059358305       -1.8355862289
 H         -2.9099105604       -0.0606897494       -2.6003048390
 H         -3.0715625603        1.6309901005       -2.1242911888
 H         -5.0162177399        0.3857924802        1.1126592312
 H         -5.4729979798        1.8136029502        2.0177680615
 H         -3.3359225198        2.5764364201        1.7192805113
 H         -3.6760780300        2.7316264603       -0.0133621786
 O         -2.0089667199        0.6047661501        1.6996413809
 C         -1.1771681699       -0.4985685800        1.7311768707
 O         -0.6000727998       -0.6767518201        2.8239520506
 H          1.7520466401       -0.9470029300        1.5870523903
 C          2.0184862600       -1.3470126699        0.6165229803
 C          1.1351369499       -2.2132808098       -0.0179951497
 C          1.4736610597       -2.7082372097       -1.2698232198
 C          2.6677018796       -2.3403901897       -1.8682098899
 C          3.5473294697       -1.4828822798       -1.2322969399
 C          3.2151496399       -0.9834064799        0.0207300802
 N          4.1005910600       -0.0885322400        0.6681169702
 S          4.1952054900        1.4331044201       -0.0248700097
 O          4.7185317198        1.2998062002       -1.3596115398
 O          4.9689894401        2.2381371699        0.8917151403
 C          2.5116716300        2.0199138301       -0.0809870494
 C          2.0608466301        2.8522739400        0.9235822907
 C          0.7406101001        3.2711321701        0.9051122509
 C         -0.1046671300        2.8391360402       -0.1047297990
 C          0.3584153199        1.9896753803       -1.0973388092
 C          1.6801906099        1.5754109103       -1.0897533294
 H          2.0727179297        0.9225259103       -1.8523511595
 H         -0.3056789802        1.6379161904       -1.8709379791
 H         -1.1327435000        3.1637397202       -0.1172782089
 H          0.3729241402        3.9266230500        1.6781879410
 H          2.7529303402        3.1652738899        1.6890584207
 H          3.8931018101        0.0193718199        1.6519240702
 H          4.4720745497       -1.1747203698       -1.6921727300
 H          2.9165460195       -2.7280108796       -2.8444682200
 H          0.7945482896       -3.3671163596       -1.7846019898
 C         -0.1691041001       -2.5114790299        0.6786760604
 H          0.0484827200       -2.6367216500        1.7484187103
 C         -0.8664214102       -3.7576140098        0.1779489003
 C         -0.3175233502       -5.1012544199        0.5493080701
 C         -1.6024793001       -4.6231459699        1.1541806803
 H         -2.5255812101       -5.0858298798        0.8386274604
 H         -1.5985318100       -4.3233959200        2.1923343703
 H         -0.3572629803       -5.8953578898       -0.1803704200
 H          0.5605505499       -5.1248008099        1.1770873300
 H         -1.3028711803       -3.6405476097       -0.8055624596
 O         -1.4992559903       -1.5209150896       -1.7260011694
