  62
        -98.93277316
 C          1.8144308109        0.7219903385        0.8465595746
 C          2.1275804256       -0.6595535594        0.8000654437
 C          3.5466692457       -1.0208402432        0.6443396048
 C          4.4597792155       -0.0382603809        0.5607310264
 C          5.9426567595       -0.1764500377        0.3514477164
 C          6.2921189876       -0.0958318741       -1.1443009871
 C          6.2359241830       -1.4273840631       -1.8920381362
 H          6.3785313105       -1.2102686658       -2.9531864487
 H          7.0706431274       -2.0542317285       -1.5712038625
 C          4.9362679655       -2.2183703583       -1.7222900611
 H          4.8596085194       -2.9193384793       -2.5557788538
 H          4.0820977186       -1.5419817681       -1.7900810129
 C          4.8761815256       -3.0045831432       -0.4042359160
 H          4.6209870968       -4.0452077610       -0.6150478655
 H          5.8667358711       -3.0157233139        0.0500941199
 C          3.8462784226       -2.4949168197        0.6138353183
 H          2.8785462174       -2.9685721175        0.4213372061
 H          4.1522047908       -2.8087417932        1.6175895777
 H          5.6073850921        0.6175026661       -1.6102264738
 H          7.3019260312        0.3068273227       -1.2467687673
 H          6.3104702545       -1.0981039257        0.7925067104
 H          6.4080959116        0.6686641691        0.8630017331
 O          4.1197362050        1.2776918411        0.6085414998
 C          2.8039144488        1.7003809694        0.7431810177
 O          2.6778243032        2.9377145097        0.7559434382
 O          1.2494092401       -1.5601508013        0.8895942797
 C          0.3494472216        1.0750510544        1.0207936570
 C         -0.3468613257        1.2830378914       -0.2993323076
 C          0.2082796084        2.0626931838       -1.3086437934
 C         -0.4750444025        2.2575794772       -2.4954275749
 C         -1.7276634712        1.7018619689       -2.6891934943
 C         -2.2902275719        0.9195128534       -1.6876829709
 C         -1.5875362319        0.7006164978       -0.5111193538
 H         -2.0176443895        0.0733233663        0.2536412913
 N         -3.5526186385        0.3356249334       -1.8494105058
 S         -4.5940627393        0.2158008327       -0.5431253849
 O         -5.9090952721        0.1149040841       -1.1378933361
 O         -4.3964388935        1.2988429149        0.3906537574
 C         -4.1750697648       -1.3422238750        0.2075152537
 C         -4.1986036082       -2.4733768915       -0.5839875236
 C         -3.8786474014       -3.6949900212       -0.0145714821
 C         -3.5437418704       -3.7647394719        1.3293616680
 C         -3.5294352461       -2.6206700561        2.1118045778
 C         -3.8491152594       -1.3956390087        1.5479745236
 H         -3.8443518682       -0.4812406760        2.1210252946
 H         -3.2661887895       -2.6760681379        3.1560100007
 H         -3.2902619857       -4.7158002875        1.7704884573
 H         -3.8878436250       -4.5878487555       -0.6188061038
 H         -4.4665082553       -2.3792037944       -1.6231005164
 H         -4.0334881406        0.5807656268       -2.7022174461
 H         -2.2657324041        1.8707336973       -3.6096223411
 H         -0.0340610587        2.8633967201       -3.2729112307
 H          1.1717911895        2.5229552213       -1.1489648077
 H         -0.0976974185        0.1804288627        1.4836241433
 C          0.1155487768        2.2356651876        1.9784656672
 C         -0.3090660047        3.6012676790        1.5398096423
 C         -1.2778891464        2.7159160220        2.2617341340
 H         -1.5401703901        2.9610431226        3.2801798480
 H         -2.0906333505        2.2907417072        1.6895646906
 H          0.1150970174        4.4478087585        2.0578458887
 H         -0.4636795410        3.7737206661        0.4864206091
 H          0.7948544264        2.1983563587        2.8247522562
