  62
        -98.93915001
 C         -1.8376462305       -1.1530910599        0.1000997809
 C         -3.2139892705       -1.2078379295        0.4413198010
 C         -4.0885246304       -0.2483840198       -0.2412281694
 C         -3.5632651304        0.6184333997       -1.1256689299
 C         -4.3261511704        1.6382386294       -1.9267954003
 C         -4.5941568101        2.9499147998       -1.1760155509
 C         -5.6477828900        2.8635720905       -0.0710622408
 H         -5.8914305499        3.8873849807        0.2195542787
 H         -6.5571143801        2.4144383804       -0.4717115505
 C         -5.1953282400        2.0911788711        1.1760445296
 H         -4.1067455800        1.9998054609        1.1722330195
 H         -5.4659686999        2.6549652315        2.0715803993
 C         -5.8084678802        0.6978569512        1.3162962503
 H         -5.3924987801        0.2282098616        2.2112684605
 H         -6.8885700501        0.7845664614        1.4533468604
 C         -5.5416372204       -0.2331230094        0.1261153708
 H         -6.1468322504        0.0667904602       -0.7292661593
 H         -5.8228642805       -1.2486998693        0.4155601313
 H         -3.6526268101        3.3097563799       -0.7549727812
 H         -4.9305247301        3.6830840295       -1.9127015913
 H         -5.2713048205        1.2088996493       -2.2606641300
 H         -3.7166740204        1.8622938489       -2.8050316605
 O         -2.2352986604        0.6548743694       -1.4102973400
 C         -1.3351472605       -0.2071349804       -0.7943750897
 O         -0.1514488205       -0.0151362007       -1.1293113599
 O         -3.6861058305       -2.0205109991        1.2791616415
 C         -0.9066021506       -2.1348194196        0.7889974513
 C          0.3450674096       -1.4302470096        1.2456258908
 C          0.2282226998       -0.3885402891        2.1627595203
 C          1.3368062799        0.3210332010        2.5811834598
 C          2.5927138498        0.0056096906        2.0918992499
 C          2.7215435496       -1.0358990599        1.1847997904
 C          1.6079734195       -1.7533173599        0.7730031008
 H          1.7336302993       -2.5366949603        0.0414154812
 N          4.0169965195       -1.3241872403        0.6712530904
 S          4.3707295595       -0.4717279010       -0.7475235601
 O          3.5321887693       -0.9237076815       -1.8373239898
 O          5.7916363695       -0.6521756513       -0.9609525301
 C          4.0236720297        1.2188026392       -0.3285568609
 C          2.7418402198        1.7059428193       -0.4934870610
 C          2.4834252300        3.0194150995       -0.1319729916
 C          3.4976354401        3.8126484996        0.3824345379
 C          4.7787749001        3.3050342596        0.5392405780
 C          5.0467330899        1.9934247594        0.1828838186
 H          6.0252070198        1.5528320693        0.2828979587
 H          5.5651447002        3.9250877697        0.9386010876
 H          3.2865043903        4.8328954498        0.6621663474
 H          1.4851545700        3.4097387596       -0.2519336517
 H          1.9688760097        1.0640322592       -0.8888511506
 H          4.1282778494       -2.3065373804        0.4514610909
 H          3.4678169699        0.5525302906        2.4028557695
 H          1.2239695101        1.1283248214        3.2883440194
 H         -0.7555450001       -0.1334528788        2.5334118402
 H         -1.4635765305       -2.4596634091        1.6840030415
 C         -0.6258546108       -3.3902397701       -0.0239648681
 C         -1.6156520109       -3.9059515505       -1.0239506478
 C         -0.3095290309       -3.3382611009       -1.4879871282
 H          0.4366724990       -4.0152710811       -1.8792966579
 H         -0.3028761408       -2.3704487611       -1.9656789387
 H         -1.7660521811       -4.9728701405       -1.0918984472
 H         -2.5123697609       -3.3270117304       -1.1891459980
 H         -0.1013104308       -4.1415601399        0.5594797922
