  62
        -98.94491264
 C          1.8506926809       -0.4034297059       -0.0624434075
 C          2.9212990196       -0.4771830698       -0.9941758759
 C          4.0750931296        0.3935862509       -0.7410349946
 C          4.0540253540        1.2146711355        0.3241900767
 C          5.1795083708        2.1172458812        0.7366292934
 C          6.1260379120        1.4119382151        1.7182056351
 C          6.5686800738        0.0224707674        1.2594080533
 H          7.2562371993       -0.3651162456        2.0142850217
 H          5.7010024666       -0.6409702844        1.2441755441
 C          7.2506338551       -0.0050938361       -0.1156369186
 H          7.5831784863        0.9981504293       -0.3846787041
 H          8.1404228842       -0.6350533123       -0.0526119970
 C          6.3838531262       -0.5704511014       -1.2423681953
 H          5.9726769933       -1.5363870502       -0.9386152281
 H          7.0259808395       -0.7465045165       -2.1094716182
 C          5.2255030180        0.3222691280       -1.7052178294
 H          5.5998299590        1.3226793161       -1.9321740157
 H          4.8196755733       -0.1093613027       -2.6247716654
 H          7.0028313773        2.0448518537        1.8667822871
 H          5.6149772382        1.3087885765        2.6782797369
 H          5.7272157106        2.4335599523       -0.1490665894
 H          4.7549720856        2.9971309460        1.2231842024
 O          3.0061631102        1.2777171006        1.1811252543
 C          1.8854199019        0.4752629398        1.0201078481
 O          1.0217423800        0.6580984583        1.9029332245
 O          2.9113516377       -1.2466600060       -1.9914626864
 C          0.6715467345       -1.3278575862       -0.3166009269
 C         -0.4810004841       -0.6055213279       -0.9721552603
 C         -0.9372234138       -0.9806242727       -2.2300625492
 C         -2.0197497411       -0.3405974302       -2.8091084384
 C         -2.6689564799        0.6845741593       -2.1453906322
 C         -2.2143075198        1.0709702875       -0.8912430023
 C         -1.1342986807        0.4243792644       -0.3100306074
 H         -0.7861111260        0.7319943503        0.6647213646
 N         -2.8822422678        2.1031953858       -0.1980933130
 S         -4.5052993684        1.8067420225        0.1059825050
 O         -5.2679337553        2.0792056309       -1.0865843179
 O         -4.8404578232        2.6004393228        1.2668767442
 C         -4.5695487545        0.0648058555        0.4846600846
 C         -4.0161097141       -0.3604141120        1.6759704542
 C         -3.9866953962       -1.7167288567        1.9546231919
 C         -4.5012754672       -2.6205360036        1.0377588256
 C         -5.0534277621       -2.1774718721       -0.1537571174
 C         -5.0867591783       -0.8216506977       -0.4376300954
 H         -5.5056837536       -0.4342281624       -1.3516506535
 H         -5.4528705591       -2.8832867579       -0.8638686797
 H         -4.4720713445       -3.6768296960        1.2544562999
 H         -3.5581749179       -2.0613912366        2.8823197817
 H         -3.6262250095        0.3698648414        2.3673515252
 H         -2.4130697893        2.3602532630        0.6593104966
 H         -3.5188640108        1.1909675247       -2.5737658082
 H         -2.3624161890       -0.6437456455       -3.7865414387
 H         -0.4301762531       -1.7741572937       -2.7590327524
 H          1.0454620142       -2.0734492580       -1.0308440086
 C          0.1917598079       -2.0521192521        0.9273894335
 C         -0.6159892840       -3.3038929603        0.7701523037
 C          0.7899704650       -3.3782904021        1.2838957648
 H          0.9505438355       -3.6064997859        2.3269277224
 H          1.5529318214       -3.7748429912        0.6297807071
 H         -1.4265640764       -3.4812945587        1.4591543035
 H         -0.8077227671       -3.6509736953       -0.2335155002
 H         -0.0622660242       -1.3861088602        1.7413677875
