  62
        -98.94490400
 C          2.1961937396        0.9536981407        0.5372012101
 C          2.3644725998        0.1706407008       -0.6307449600
 C          3.1759388998       -1.0432260292       -0.4702049800
 C          3.6557840697       -1.3738914293        0.7422822100
 C          4.4770753998       -2.5915966193        1.0692185000
 C          5.9772998298       -2.4261828392        0.7897835301
 C          6.3674336599       -2.4243257990       -0.6887812198
 H          7.4538289499       -2.5229479690       -0.7329385698
 H          5.9408075900       -3.3012412490       -1.1767252599
 C          5.9557505999       -1.1571879790       -1.4511965098
 H          5.7267788598       -0.3614622191       -0.7387150298
 H          6.7935617899       -0.8105719389       -2.0601952797
 C          4.7613429800       -1.3402405890       -2.3877474399
 H          5.0239281001       -2.0388373889       -3.1852230999
 H          4.5340261800       -0.3748202190       -2.8467153898
 C          3.4883040999       -1.8463633491       -1.6965043300
 H          2.6500616400       -1.7321167191       -2.3886966201
 H          3.5901961400       -2.9020813791       -1.4449847501
 H          6.3195432297       -1.5007049292        1.2584843602
 H          6.4921692298       -3.2565651592        1.2784038201
 H          4.3440547397       -2.7784858093        2.1371125100
 H          4.0944369398       -3.4504358892        0.5167440899
 O          3.4198895196       -0.6240134694        1.8525328401
 C          2.7018011796        0.5592917806        1.7751320601
 O          2.5719890794        1.1529337505        2.8659438301
 H         -0.2019602704        0.4309482805        1.5443799598
 C         -0.7038728204        0.9539682205        0.7384966898
 C         -0.0180925704        1.9502015106        0.0538527000
 C         -0.6706860603        2.6142493206       -0.9756049500
 C         -1.9692328503        2.2739169106       -1.3145312002
 C         -2.6460987503        1.2796212805       -0.6329862303
 C         -2.0045471503        0.6126891505        0.4030574497
 N         -2.6892106004       -0.3843453096        1.1206987596
 S         -3.4779304802       -1.5885206396        0.2560375595
 O         -3.5736259802       -2.7049967396        1.1719958294
 O         -2.8322407401       -1.8510380795       -1.0093733005
 C         -5.1054096802       -0.9168579596       -0.0108005106
 C         -5.6395884501       -0.8914756196       -1.2841673407
 C         -6.9118429902       -0.3716316096       -1.4665244607
 C         -7.6232410303        0.1097136303       -0.3782420808
 C         -7.0733149804        0.0743090402        0.8946741293
 C         -5.8028163703       -0.4452370497        1.0842377894
 H         -5.3398521104       -0.4922303298        2.0557366694
 H         -7.6293882604        0.4498977801        1.7384605393
 H         -8.6119445603        0.5155992602       -0.5230090208
 H         -7.3407429101       -0.3433982296       -2.4552864108
 H         -5.0454605501       -1.2693670095       -2.1010392406
 H         -2.1448810904       -0.7870048196        1.8700831296
 H         -3.6550979703        1.0098773405       -0.8984819404
 H         -2.4619687303        2.7920227706       -2.1229670702
 H         -0.1599049103        3.3900132807       -1.5214186400
 C          1.4008902196        2.2461845006        0.4769755801
 H          1.3725100495        2.6324595206        1.5064528901
 C          2.1032578196        3.2573137607       -0.4041374998
 C          1.9082215395        4.7240289607       -0.1680789797
 C          3.2137470595        4.0760560007        0.1797197304
 H          4.0766691995        4.2870922308       -0.4339014196
 H          3.4485404494        3.9206865807        1.2230111304
 H          1.8772755095        5.3844635708       -1.0213514597
 H          1.2576182494        5.0173243706        0.6417862703
 H          2.2205679897        2.9110160408       -1.4244033898
 O          1.8666611598        0.4659112108       -1.7476267200
