  62
        -98.94342402
 C         -1.9700951493       -0.8536536755        0.0135436007
 C         -2.2470436064        0.0991095562        1.0208332780
 C         -2.4284233939        1.4801349826        0.5640931960
 C         -2.2839744350        1.7747739579       -0.7408422865
 C         -2.3936301273        3.1440442871       -1.3555040414
 C         -3.8322015396        3.5784364833       -1.6683440162
 C         -4.6836505478        3.9358016592       -0.4494332518
 H         -4.1485272171        4.6602548004        0.1651545641
 H         -5.5857146771        4.4254930840       -0.8213557006
 C         -5.0942202022        2.7323881400        0.4104932662
 H         -6.1568796922        2.8027862000        0.6527397743
 H         -4.9551507740        1.8118678239       -0.1609880347
 C         -4.3358896836        2.6102659283        1.7322345913
 H         -4.5675985900        3.4663258922        2.3697211499
 H         -4.6787374423        1.7067612491        2.2428070957
 C         -2.8120684589        2.5154419847        1.5780091111
 H         -2.3846692221        2.2126203823        2.5375404600
 H         -2.3979381748        3.4862117761        1.3050725888
 H         -3.7728082777        4.4575479187       -2.3140109353
 H         -4.3207763326        2.7818565071       -2.2339454216
 H         -1.9223528490        3.8758308261       -0.6984642330
 H         -1.8304082778        3.1072179061       -2.2905098271
 O         -1.9956947043        0.8332758052       -1.6778721854
 C         -1.8302325490       -0.4979209695       -1.3279609028
 O         -1.5718344573       -1.2519642896       -2.2861665861
 O         -2.3334487370       -0.1920063122        2.2465332724
 C         -1.7277531200       -2.2963967554        0.4104148426
 C         -0.3309160393       -2.7260537706        0.0286083414
 C         -0.0198493282       -4.0257416343       -0.3509957028
 C          1.2832049492       -4.3684377404       -0.6698215805
 C          2.2965430424       -3.4296966740       -0.6266485372
 C          1.9942180294       -2.1232872859       -0.2537933927
 C          0.6951530754       -1.7919576143        0.0905179098
 H          0.4767496351       -0.7797989753        0.3990824895
 N          2.9913417807       -1.1347679209       -0.2626923244
 S          2.7452525203        0.3739314144        0.4311059921
 O          2.4617720429        0.2480454862        1.8453337248
 O          1.7834392824        1.1049818980       -0.3560961859
 C          4.3695716806        1.0717727735        0.2001922531
 C          5.2736072878        1.0584914275        1.2454065385
 C          6.5421799613        1.5788813151        1.0417955809
 C          6.8842220758        2.0986868002       -0.1974180189
 C          5.9657014732        2.1068154291       -1.2368542063
 C          4.6956584772        1.5887907925       -1.0394495171
 H          3.9448879128        1.5810565939       -1.8127113087
 H          6.2333948920        2.5145633715       -2.1982823854
 H          7.8717526050        2.5029614692       -0.3538636065
 H          7.2568865785        1.5770203172        1.8488166767
 H          4.9588396869        0.6530108386        2.1934749404
 H          3.9258899309       -1.4881818059       -0.1171886962
 H          3.3088024546       -3.6958625378       -0.8881743977
 H          1.5115761818       -5.3826053697       -0.9604948573
 H         -0.7984640062       -4.7695331190       -0.3986842301
 H         -1.7992767381       -2.3128008354        1.5096174692
 C         -2.8041772232       -3.1972171688       -0.1616137504
 C         -3.2807836739       -4.3963215591        0.6009452261
 C         -4.1614427171       -3.1910776957        0.4737589687
 H         -5.0303778527       -3.2474096293       -0.1644316757
 H         -4.2965273045       -2.5607032474        1.3408642232
 H         -3.5492477630       -5.2844220496        0.0489239785
 H         -2.8288050639       -4.5904897653        1.5620198546
 H         -2.7572578821       -3.2594472652       -1.2430543598
