  62
        -98.93357552
 C          2.1283593333        1.0898204468       -0.4385775174
 C          3.2300288780        0.7345550829        0.3787955323
 C          3.9232934035       -0.5330902244        0.0847134653
 C          3.4711279320       -1.2897715759       -0.9320725096
 C          3.9748726069       -2.6303018829       -1.3992329384
 C          3.5581928630       -3.7797760519       -0.4690421998
 C          3.7477055894       -3.5011894473        1.0195189642
 H          3.1602034792       -2.6234948945        1.2955185301
 H          3.3366660140       -4.3515289720        1.5700512459
 C          5.1949982241       -3.3088064215        1.4669477710
 H          5.1883220342       -3.2355393862        2.5573516462
 H          5.7742600187       -4.1944568685        1.1970672984
 C          5.9071515351       -2.0712804312        0.9153383448
 H          6.2444131692       -2.2309176383       -0.1053105986
 H          6.8063345290       -1.9171587850        1.5187571273
 C          5.0962718306       -0.7824724819        1.0024194976
 H          5.7717164766        0.0673378674        0.8471888051
 H          4.7158989933       -0.6627943696        2.0231860539
 H          4.1218513362       -4.6710738369       -0.7505016424
 H          2.4974076242       -3.9823690018       -0.6379544297
 H          3.5335378468       -2.8024512630       -2.3835625705
 H          5.0538941006       -2.6031175157       -1.5198717755
 O          2.4053793565       -0.9124694042       -1.6940098198
 C          1.7106473459        0.2677288063       -1.4854313881
 O          0.7831358968        0.4464211230       -2.2998712184
 O          3.6340370251        1.4604951783        1.3284209381
 C          1.4464401757        2.4042361019       -0.1087633742
 C          0.2784366906        2.2216529065        0.8324614295
 C          0.1523566760        3.0302721162        1.9562586478
 C         -0.9365438990        2.8999123593        2.7990743647
 C         -1.9207955035        1.9671396653        2.5319209862
 C         -1.7981657683        1.1429915591        1.4170642601
 C         -0.7019300447        1.2731364579        0.5761308307
 H         -0.6242510743        0.6344725702       -0.2909114636
 N         -2.7655759832        0.1602515253        1.1621681663
 S         -3.0391112875       -0.3769192756       -0.4136044772
 O         -2.0756186885       -1.4025399895       -0.7236125514
 O         -3.1276389040        0.7476522336       -1.3162577521
 C         -4.6529742757       -1.1109863504       -0.2090908903
 C         -4.7471247951       -2.4177562703        0.2304234453
 C         -6.0029402279       -2.9739877695        0.4165139654
 C         -7.1379773349       -2.2184761837        0.1623708831
 C         -7.0284729094       -0.9089722970       -0.2809267502
 C         -5.7754855273       -0.3468728072       -0.4681700757
 H         -5.6408697940        0.6626875529       -0.8219638875
 H         -7.9121959228       -0.3251293733       -0.4819965798
 H         -8.1138964264       -2.6541308841        0.3071673653
 H         -6.0913460035       -3.9930077361        0.7571645262
 H         -3.8368146953       -2.9675605076        0.4049303613
 H         -3.6259075710        0.3045112864        1.6724007745
 H         -2.7746652498        1.8659728344        3.1841715560
 H         -1.0229447899        3.5340190534        3.6681846145
 H          0.9212164482        3.7574627821        2.1708161514
 H          2.2069108392        2.9970924294        0.4195066753
 C          0.9900708480        3.1870130834       -1.3248829759
 C          0.9040168178        4.6805535831       -1.2439164544
 C          1.9773867626        4.0346296591       -2.0667328011
 H          1.9082141820        4.0793685281       -3.1430825429
 H          2.9907963498        4.0588483657       -1.6929037945
 H          0.0916954641        5.1744243857       -1.7545367366
 H          1.1933581839        5.1510424453       -0.3166053306
 H          0.2384203157        2.6689493100       -1.9076381545
