  62
        -98.94398489
 C          1.3829237657       -1.5800373824        0.6131040747
 C          2.6131902081       -1.5519171649       -0.0923090869
 C          3.5935291711       -0.5463698007        0.3326239202
 C          3.2870805394        0.2751650021        1.3527794249
 C          4.1585229136        1.3924885250        1.8471772725
 C          3.8242083100        2.7081608622        1.1306956193
 C          3.7665680016        2.5863189440       -0.3922734811
 H          2.9139325040        1.9588320982       -0.6650627453
 H          3.5610129363        3.5834469469       -0.7885588593
 C          5.0442138962        2.0301713447       -1.0370854212
 H          5.2857557337        2.6380089029       -1.9115841360
 H          5.8783265010        2.1189142555       -0.3399454617
 C          4.9361314717        0.5816019891       -1.5172818000
 H          4.0429201518        0.4684272121       -2.1373767685
 H          5.8029836063        0.3669878750       -2.1480590449
 C          4.8949956065       -0.4848064720       -0.4157143227
 H          5.7295074485       -0.3361147219        0.2725459515
 H          5.0115708163       -1.4616123605       -0.8943599339
 H          2.8467081859        3.0539271649        1.4763137297
 H          4.5700245239        3.4546181268        1.4111286695
 H          3.9850585910        1.5182656506        2.9173514928
 H          5.2029247334        1.1325109412        1.6851618080
 O          2.1137635429        0.2044070366        2.0255800614
 C          1.1164774477       -0.6936538164        1.6581576289
 O          0.0870457273       -0.5971253696        2.3504072099
 O          2.8779461174       -2.3428180917       -1.0387448834
 C          0.3524860384       -2.5782926233        0.1167974464
 C         -0.4451802527       -1.9922779386       -1.0236005084
 C         -0.8075721981       -2.7676952168       -2.1192037376
 C         -1.5344514085       -2.2150645238       -3.1589914341
 C         -1.9024336982       -0.8822739730       -3.1327318060
 C         -1.5276898336       -0.0916058253       -2.0503013044
 C         -0.8181807874       -0.6564473180       -1.0006167765
 H         -0.5242045945       -0.0351212226       -0.1711285865
 N         -1.8305391599        1.2720399017       -2.0335854257
 S         -1.8935587778        2.2153676789       -0.6604156434
 O         -2.3961144841        3.4825515071       -1.1494548117
 O         -0.6081858441        2.2538109153       -0.0112384550
 C         -3.1411888566        1.4674625831        0.3705890339
 C         -2.8089712038        0.7658079540        1.5103257991
 C         -3.8296163648        0.2055913198        2.2656382682
 C         -5.1494561154        0.3466141633        1.8699537197
 C         -5.4655640578        1.0540067442        0.7190630865
 C         -4.4541219728        1.6211348331       -0.0364977057
 H         -4.6573188193        2.1979472630       -0.9240514062
 H         -6.4930706559        1.1656026906        0.4125328945
 H         -5.9350121733       -0.0948541362        2.4626727082
 H         -3.5757410704       -0.3411372178        3.1595381003
 H         -1.7758435779        0.6497044514        1.8002740984
 H         -2.4388996772        1.6013454404       -2.7665358265
 H         -2.4559398699       -0.4475118161       -3.9505755149
 H         -1.8113113422       -2.8266049037       -4.0041725509
 H         -0.4963834791       -3.8008468468       -2.1645037095
 H          0.9415429191       -3.4133014127       -0.2968400067
 C         -0.5318683611       -3.1447254658        1.2178765670
 C         -1.9678399230       -2.7613357554        1.3899588780
 C         -1.6162207170       -4.1301633691        0.8952314485
 H         -1.7572221128       -4.9714607003        1.5565854940
 H         -1.8044718433       -4.3476222567       -0.1445159458
 H         -2.3367344688       -2.6481821502        2.3970689227
 H         -2.3911421665       -2.0549984863        0.6922478415
 H          0.0289207147       -3.3220593788        2.1296706360
