  62
        -98.94056346
 C          1.9373226505        0.8620015575        0.6956831847
 C          1.8848465459        0.1954164263       -0.5539535590
 C          2.1561609384       -1.2497990613       -0.5218666790
 C          2.3452182071       -1.8628673465        0.6592956627
 C          2.6705258468       -3.3179392157        0.8318602572
 C          4.1878830842       -3.5525761281        0.8416975251
 C          4.9252577492       -2.8759868862       -0.3139236748
 H          4.8468731823       -1.7923737774       -0.1999114457
 H          5.9822420407       -3.1339753810       -0.2202743724
 C          4.4222841538       -3.2751772159       -1.7081292428
 H          5.2846079662       -3.4735697953       -2.3479113154
 H          3.8461784059       -4.1987614315       -1.6432903016
 C          3.5838902676       -2.2050365664       -2.4098455356
 H          3.4647397994       -2.4977468998       -3.4562954164
 H          4.1195684831       -1.2525299732       -2.3952124426
 C          2.1791662874       -1.9761752923       -1.8369469777
 H          1.6501743708       -2.9282481705       -1.7572764985
 H          1.6285984537       -1.3396737279       -2.5360494413
 H          4.3701817065       -4.6282999089        0.8127508296
 H          4.5907932456       -3.1640539289        1.7799085147
 H          2.2515037098       -3.6516405078        1.7828691044
 H          2.2074909725       -3.8836414506        0.0254997513
 O          2.3073198806       -1.2049214387        1.8473745656
 C          2.1016538547        0.1639812125        1.8934090115
 O          2.0855629007        0.6382844058        3.0486658349
 O          1.6378259293        0.7671856634       -1.6472380622
 C          1.6589582401        2.3519718544        0.8138997658
 C          0.4212144304        2.6808703938        0.0154176035
 C          0.3622589694        3.6518491378       -0.9744599333
 C         -0.8098601056        3.8531067766       -1.6832659877
 C         -1.9334239079        3.0885875772       -1.4316532705
 C         -1.8869623629        2.1220110343       -0.4321930781
 C         -0.7232269090        1.9431364221        0.2940404139
 H         -0.6929528067        1.1856532167        1.0657519057
 N         -3.0164538995        1.3385000406       -0.1325586662
 S         -2.7757886591       -0.2444227745        0.4024868483
 O         -2.5012770737       -0.2167512545        1.8188660063
 O         -1.8073621117       -0.9257373816       -0.4268119599
 C         -4.4066557481       -0.9130296867        0.1274840045
 C         -4.6564226940       -1.6483133666       -1.0156692257
 C         -5.9363889547       -2.1335996043       -1.2345383289
 C         -6.9400255061       -1.8733678469       -0.3136514828
 C         -6.6740996903       -1.1340411651        0.8294914277
 C         -5.3963178666       -0.6474375517        1.0551334847
 H         -5.1384859311       -0.0769170036        1.9320929501
 H         -7.4559535152       -0.9358547481        1.5446759835
 H         -7.9351086587       -2.2515316414       -0.4866225650
 H         -6.1446876712       -2.7114096980       -2.1205253043
 H         -3.8421264358       -1.8307296688       -1.6986850198
 H         -3.7212867759        1.3784534254       -0.8565591284
 H         -2.8376728868        3.2310700112       -2.0036547977
 H         -0.8415465917        4.6040260045       -2.4582314831
 H          1.2401646923        4.2291415906       -1.2135060634
 H          1.4184161843        2.5087418191        1.8793619887
 C          2.8485550600        3.2467371303        0.5012930070
 C          4.2517915009        2.7465419456        0.6688379107
 C          3.7181903486        3.0362838218       -0.7002035209
 H          4.0918859750        3.9069373884       -1.2191599660
 H          3.4780724808        2.2091385687       -1.3485689044
 H          4.9877806173        3.4148585574        1.0900425705
 H          4.3804594217        1.7142924340        0.9620264927
 H          2.6692141465        4.2751549153        0.7997027397
