  62
        -98.94606029
 C         -1.5179233576       -1.1061020195        0.2031542036
 C         -2.5403658392       -0.6256244038        1.0582803970
 C         -3.0748696467        0.7059697006        0.7489166372
 C         -2.5332036675        1.4116417402       -0.2603344617
 C         -3.0066421690        2.7618663502       -0.7131712783
 C         -4.0743510103        2.6401152411       -1.8097635649
 C         -5.1994764504        1.6624346721       -1.4701347912
 H         -5.9077599524        1.6800691097       -2.3011240019
 H         -4.7888986562        0.6514553111       -1.4185395714
 C         -5.9384538691        1.9750479484       -0.1615316019
 H         -5.7451556550        3.0063819981        0.1356295898
 H         -7.0126317000        1.8827121962       -0.3346997410
 C         -5.5930134881        1.0415902396        1.0002394839
 H         -5.6963471929        0.0020674080        0.6787228095
 H         -6.3190907966        1.2100995329        1.7999317649
 C         -4.1956997781        1.2208636413        1.6075996384
 H         -4.0344462144        2.2710825489        1.8609128345
 H         -4.1560836186        0.6365917810        2.5319435353
 H         -4.4936950503        3.6309048229       -1.9936132925
 H         -3.5898399427        2.2998437350       -2.7277901599
 H         -3.4067094991        3.3042530005        0.1415600671
 H         -2.1485514208        3.3098592932       -1.1066115631
 O         -1.5125955886        0.9464553328       -1.0205064691
 C         -0.9719909502       -0.3121794809       -0.8057760507
 O         -0.0341756816       -0.5944557264       -1.5758651107
 H          0.5403166161       -0.7065651019        1.8191930459
 C          1.1614815806       -1.3960993272        1.2648867090
 C          0.5724809997       -2.4002821423        0.5050021832
 C          1.3988726159       -3.2663598502       -0.1989140782
 C          2.7749118171       -3.1181126992       -0.1528808117
 C          3.3531565027       -2.0919358880        0.5705489771
 C          2.5335873359       -1.2191707736        1.2769064382
 N          3.0622204707       -0.1239279541        1.9973158522
 S          2.7226494553        1.3889608241        1.3535460006
 O          3.3882912081        2.3318546408        2.2280625788
 O          1.2992018426        1.5501095759        1.2072829753
 C          3.5465638915        1.3742286022       -0.2291700079
 C          4.8123414983        1.9235866162       -0.3135843072
 C          5.5008049635        1.8451463478       -1.5127559253
 C          4.9187090859        1.2096217573       -2.5996604084
 C          3.6504105094        0.6603145777       -2.4962152005
 C          2.9513094585        0.7387649978       -1.3004106377
 H          1.9604293521        0.3214615454       -1.2030937072
 H          3.1911081553        0.1642612416       -3.3361784435
 H          5.4551345948        1.1424271211       -3.5330220084
 H          6.4863035439        2.2745110007       -1.5949809108
 H          5.2217223308        2.4083856157        0.5581349020
 H          4.0591409175       -0.1907130207        2.1563748282
 H          4.4245754439       -1.9586169642        0.5845172595
 H          3.4033759498       -3.7988881173       -0.7063038299
 H          0.9672169140       -4.0479158803       -0.8020914872
 C         -0.9339867734       -2.4761357491        0.4991582608
 H         -1.2631064079       -2.6928976016        1.5301577900
 C         -1.4846014183       -3.5933338769       -0.3754957428
 C         -2.8085753354       -3.4560557377       -1.0644394452
 C         -1.5450578633       -3.4769207056       -1.8682281074
 H         -1.3315139524       -4.3544753951       -2.4606836222
 H         -1.1993794332       -2.5548144690       -2.3079874872
 H         -3.4595608586       -4.3167766492       -1.0996715098
 H         -3.3325902026       -2.5168706341       -0.9593823506
 H         -1.2590646421       -4.5754024884        0.0284876402
 O         -2.9823940083       -1.2824921122        2.0404247501
