  62
        -98.94855678
 C         -1.5613109252       -1.1070726022        0.8531947718
 C         -2.5478726451       -0.5459478486        0.0069149738
 C         -2.9736005203        0.8186715285        0.3391443773
 C         -2.4100713526        1.4643448475        1.3753773099
 C         -2.7134397120        2.8706197087        1.8146517374
 C         -1.9473157429        3.9347503251        1.0161803589
 C         -2.4631369202        4.1787079654       -0.4027932955
 H         -3.5427879648        4.3337265594       -0.3781994961
 H         -2.0066947788        5.1069859638       -0.7526471113
 C         -2.1202721007        3.0612720430       -1.3982573004
 H         -1.3014812038        2.4567502521       -0.9996428035
 H         -1.7556719609        3.5050447110       -2.3285046066
 C         -3.2928370035        2.1499381143       -1.7624797958
 H         -4.0448867467        2.7234361653       -2.3102269932
 H         -2.9194082600        1.3629998996       -2.4231177895
 C         -3.9726640117        1.4771385993       -0.5637290323
 H         -4.5644032918        2.2052547473       -0.0092296158
 H         -4.6390621983        0.6986233624       -0.9441454563
 H         -0.8944436026        3.6445181111        0.9670728075
 H         -2.0126171159        4.8731764023        1.5723689290
 H         -3.7852391635        3.0589277081        1.7441062395
 H         -2.4145293649        2.9428695704        2.8626603495
 O         -1.4752076480        0.8868758796        2.1736998782
 C         -1.0031794911       -0.3879491261        1.9093351526
 O         -0.1017843771       -0.7693247001        2.6856868105
 H          0.9773537875       -0.7541755899        0.0518641989
 C          0.7353929025       -1.2952552575       -0.8494103502
 C         -0.2323348904       -2.2919576138       -0.7945156271
 C         -0.5272536789       -2.9987679418       -1.9507691736
 C          0.1030518641       -2.6729607299       -3.1408811496
 C          1.0124029717       -1.6338411653       -3.2052546239
 C          1.3301600209       -0.9334688936       -2.0445484934
 N          2.2514245544        0.1200415285       -2.0674064552
 S          2.2603959357        1.3398289691       -0.9225621933
 O          0.9443792187        1.6315786029       -0.4071778288
 O          2.9370652013        2.4338323505       -1.5890729061
 C          3.3373498680        0.6977680307        0.3408910238
 C          4.6512467833        0.4615545503       -0.0178277791
 C          5.5266106637       -0.0443013492        0.9279039601
 C          5.0759407411       -0.3063900118        2.2136858789
 C          3.7567790103       -0.0610537045        2.5591751826
 C          2.8759590277        0.4483598551        1.6164970817
 H          1.8414385806        0.6345606835        1.8631052622
 H          3.3955174209       -0.2670956979        3.5541706034
 H          5.7552564360       -0.7032094671        2.9516073718
 H          6.5539764723       -0.2344693423        0.6622272703
 H          4.9606384069        0.6874863389       -1.0246365120
 H          2.5286461292        0.4391812467       -2.9829304100
 H          1.4700595817       -1.3585389276       -4.1431742702
 H         -0.1389456201       -3.2212114755       -4.0389110688
 H         -1.2642759132       -3.7843454385       -1.9286839458
 C         -0.9507062357       -2.4616437157        0.5234912451
 H         -0.2029289146       -2.6596863716        1.3044552595
 C         -1.9825084591       -3.5664630374        0.5351094349
 C         -1.5474269001       -4.9872819869        0.7290302406
 C         -2.2785512794       -4.2712052382        1.8235380064
 H         -3.2996352172       -4.5518428700        2.0337819435
 H         -1.7221071148       -3.9646922039        2.6974451019
 H         -0.4922214023       -5.1721117246        0.8618682017
 H         -2.0672619726       -5.7643206952        0.1895348753
 H         -2.8153846518       -3.3702712182       -0.1290606842
 O         -3.0516355405       -1.1459285127       -0.9787280546
