  62
        -98.94379698
 C         -1.6382073799       -1.4268525618        0.4023158448
 C         -1.7680146666       -0.1835689279        1.0772156571
 C         -3.0407788474        0.5233604864        0.9038560238
 C         -4.0184254416       -0.0385532068        0.1708177042
 C         -5.3913114252        0.5311957381       -0.0635910685
 C         -5.4622103461        1.5445973965       -1.2140439732
 C         -4.8172698444        2.9007083388       -0.9256564625
 H         -5.1271257976        3.5786619957       -1.7234488295
 H         -5.2123947515        3.2976047652        0.0099719303
 C         -3.2835621773        2.8707175063       -0.8696889789
 H         -2.9200636793        1.9527830935       -1.3374782654
 H         -2.8823927415        3.7045742220       -1.4497427672
 C         -2.6950623889        2.9730486174        0.5375531964
 H         -2.9313156727        3.9504893084        0.9639115572
 H         -1.6094076558        2.8871862091        0.4554968359
 C         -3.1802218949        1.8879027193        1.5074576952
 H         -2.5554168319        1.9200380945        2.4033749032
 H         -4.2145141677        2.0733117684        1.7967861634
 H         -4.9990355482        1.1014537936       -2.0986820173
 H         -6.5187594320        1.7080758651       -1.4390368771
 H         -6.0398032398       -0.3129343379       -0.3082202834
 H         -5.7562368339        0.9943247280        0.8537401968
 O         -3.8667387950       -1.2406363594       -0.4411469634
 C         -2.6717627273       -1.9466887843       -0.3774670145
 O         -2.6877965503       -2.9972294565       -1.0491787690
 O         -0.8621458072        0.3063424688        1.8018170271
 C         -0.3120748865       -2.1465108605        0.5729331995
 C          0.6392928663       -1.8394968944       -0.5592663156
 C          0.3089616165       -2.1189581264       -1.8812285019
 C          1.2053951135       -1.8421926976       -2.8969145836
 C          2.4401605038       -1.2829785187       -2.6177187701
 C          2.7826111454       -1.0056836526       -1.2990747396
 C          1.8796548480       -1.2839820741       -0.2814737934
 H          2.1584012456       -1.0716713954        0.7387162576
 N          4.0400270410       -0.4742615354       -0.9913811988
 S          4.3087231028        0.4978089377        0.3362434355
 O          5.6015092242        1.0922681328        0.0738123303
 O          4.2041615250       -0.2751207706        1.5481499449
 C          3.0542945618        1.7633379558        0.2852500274
 C          2.1181561455        1.8570182484        1.2931321080
 C          1.1679405600        2.8639035160        1.2352016494
 C          1.1676639135        3.7518559070        0.1713772638
 C          2.1153001405        3.6444927282       -0.8361965947
 C          3.0696152028        2.6430204621       -0.7804254769
 H          3.8322183294        2.5422022981       -1.5355464411
 H          2.1118860483        4.3391196549       -1.6608623740
 H          0.4263329324        4.5347577133        0.1284372212
 H          0.4275139400        2.9316449865        2.0158492849
 H          2.1351779484        1.1476397912        2.1043593571
 H          4.6072249319       -0.2131953965       -1.7834105935
 H          3.1383807684       -1.0707858660       -3.4127079565
 H          0.9391852145       -2.0632505351       -3.9195989501
 H         -0.6536400700       -2.5544329648       -2.1017379368
 H          0.1257167550       -1.7282027686        1.4900749919
 C         -0.4416718454       -3.6467132376        0.7520303226
 C          0.6792830136       -4.3948905892        1.4063836314
 C         -0.6213930520       -4.2098736633        2.1280879051
 H         -1.2699697862       -5.0637742557        2.2539654305
 H         -0.6511753556       -3.5141806684        2.9542399756
 H          0.9266684832       -5.3780990085        1.0365768399
 H          1.5333044416       -3.8254524584        1.7428058284
 H         -0.9683852983       -4.1342132991       -0.0577060294
