  62
        -98.94114346
 C         -1.0292493374       -1.9642782041        0.4569094872
 C         -1.6966754618       -1.6335523615       -0.7487073354
 C         -2.8919291508       -0.7883337072       -0.6016491799
 C         -3.2455199206       -0.3185145245        0.6073515385
 C         -4.4609960406        0.5146966644        0.9137254996
 C         -4.2881608257        2.0172619818        0.6557198304
 C         -4.2270639756        2.4267377874       -0.8161121749
 H         -5.0889920792        2.0165654343       -1.3433382615
 H         -4.3144971113        3.5144457489       -0.8511336607
 C         -2.9357722794        2.0103584431       -1.5347762394
 H         -2.1734543434        1.7519027722       -0.7961460696
 H         -2.5497482471        2.8534099057       -2.1121936060
 C         -3.1041473385        0.8378880235       -2.5003683020
 H         -3.7717364320        1.1246499121       -3.3161292895
 H         -2.1281301338        0.6035364664       -2.9335479210
 C         -3.6515705940       -0.4368835204       -1.8458344296
 H         -4.7117437396       -0.3184026924       -1.6224935397
 H         -3.5329664226       -1.2619930487       -2.5526970237
 H         -3.3826906963        2.3531908743        1.1622158306
 H         -5.1393093839        2.5247331263        1.1155727714
 H         -5.3092237883        0.1414965050        0.3384268410
 H         -4.6737652611        0.3712963695        1.9753159963
 O         -2.5278339274       -0.5890702413        1.7297090395
 C         -1.4187428423       -1.4163758363        1.6828670816
 O         -0.8677686479       -1.5956440729        2.7865695103
 H          0.7282325997       -0.8241072044       -1.1366047134
 C          1.5700669086       -1.0673027149       -0.5039579721
 C          1.4627530174       -2.1160929402        0.3986572056
 C          2.5574781865       -2.4175659305        1.1998717772
 C          3.7354237592       -1.6987675201        1.0862266424
 C          3.8380590222       -0.6529189608        0.1864206698
 C          2.7403726935       -0.3288351177       -0.6013576941
 N          2.8182445292        0.7796862227       -1.4741833697
 S          2.9421193553        2.2764609311       -0.7298780563
 O          2.7997015953        3.2519734586       -1.7852708072
 O          4.1726988003        2.3164304618        0.0172330508
 C          1.5514269569        2.3831890986        0.3854735639
 C          0.4889731775        3.1984650208        0.0513178416
 C         -0.6002312735        3.2665210265        0.9053541823
 C         -0.6206220048        2.4977685171        2.0592681243
 C          0.4479267200        1.6736126082        2.3757087343
 C          1.5516534841        1.6230611211        1.5393183922
 H          2.4050662215        1.0088973432        1.7747908475
 H          0.4189348971        1.0589691009        3.2616052446
 H         -1.4711022464        2.5353781537        2.7226493430
 H         -1.4279100422        3.9151039515        0.6655256896
 H          0.5404067532        3.7700164770       -0.8614373227
 H          2.0591012891        0.8075253943       -2.1413493625
 H          4.7355242245       -0.0618795228        0.1055163790
 H          4.5798090632       -1.9487580225        1.7102821144
 H          2.4767462899       -3.2113459783        1.9278086818
 C          0.1750457639       -2.8897857638        0.5192578359
 H          0.1538444518       -3.3294878749        1.5293295523
 C          0.0924064463       -4.0390460142       -0.4770234416
 C          0.9393684922       -4.1206639705       -1.7076685613
 C          1.1970180358       -5.0502124521       -0.5624936736
 H          0.9340433638       -6.0915299296       -0.6707806662
 H          2.0828598897       -4.8770290931        0.0291572784
 H          1.6476970012       -3.3276250522       -1.8912809980
 H          0.4825986740       -4.5073663956       -2.6056826627
 H         -0.9197113728       -4.4199116688       -0.5668624338
 O         -1.3410839380       -2.0134750722       -1.8937447610
