  62
        -98.94292385
 C          2.0417378408        0.3570131418       -0.9351544592
 C          2.8635898708       -0.7893226484       -0.8020906111
 C          4.2766253608       -0.5303590389       -0.4924608705
 C          4.7211438607        0.7316346409       -0.3627929982
 C          6.1335974207        1.1494469704       -0.0564916173
 C          6.4771633605        1.1324469178        1.4394596427
 C          6.6340856304       -0.2582612232        2.0560253103
 H          7.3320181205       -0.8432534122        1.4562124294
 H          7.0856559203       -0.1222035849        3.0407759206
 C          5.3181902404       -1.0317444236        2.2195194488
 H          5.2791405403       -1.4764948953        3.2164608780
 H          4.4764839204       -0.3389485535        2.1458700999
 C          5.1188500606       -2.1624942218        1.2103530068
 H          5.8809699506       -2.9296272321        1.3641687756
 H          4.1418462706       -2.6163828022        1.3935075459
 C          5.1655245308       -1.7143744393       -0.2561704124
 H          4.7987986609       -2.5350596782       -0.8772800639
 H          6.1900044508       -1.4851399287       -0.5477427019
 H          7.4204125404        1.6696811177        1.5628646538
 H          5.7064494404        1.6864526569        1.9805996436
 H          6.8314048508        0.5110227114       -0.5990429483
 H          6.2413145607        2.1726794511       -0.4228755155
 O          3.9061519707        1.8090522211       -0.5177062864
 C          2.5591567607        1.6484486416       -0.7898274969
 O          1.9305869807        2.7225744817       -0.8895743551
 O          2.4650737809       -1.9772338682       -0.9251135632
 C          0.5558019109        0.2911227323       -1.2464645895
 C         -0.2763833393        0.0199713001       -0.0155228801
 C         -0.0229614494       -1.0659941813        0.8163941880
 C         -0.8107092295       -1.2952870833        1.9292961075
 C         -1.8831778796       -0.4687476339        2.2170135488
 C         -2.1541083795        0.6090708276        1.3841102207
 C         -1.3425353094        0.8551477295        0.2849281012
 H         -1.5611372893        1.7054969506       -0.3431488774
 N         -3.2583601596        1.4542335071        1.6199192920
 S         -4.4293349494        1.5136589092        0.4215442019
 O         -3.8744725793        2.0879396713       -0.7762800370
 O         -5.5456068595        2.2131993981        1.0165600030
 C         -4.8572843693       -0.1979597204        0.1526655589
 C         -5.9343808594       -0.7293290416        0.8351608078
 C         -6.2202880693       -2.0775333314        0.6929930954
 C         -5.4190351592       -2.8707276000       -0.1143609958
 C         -4.3395580791       -2.3227938587       -0.7900457448
 C         -4.0527657092       -0.9730765889       -0.6593191324
 H         -3.2218935791       -0.5180480980       -1.1731365915
 H         -3.7133939290       -2.9390222176       -1.4150544757
 H         -5.6364313791       -3.9219553298       -0.2191014977
 H         -7.0614047494       -2.5055115523        1.2142203646
 H         -6.5298772295       -0.0749553527        1.4512307589
 H         -3.7038006897        1.2971513655        2.5137081216
 H         -2.5048257997       -0.6546662954        3.0799623184
 H         -0.5958692696       -2.1348698844        2.5726543361
 H          0.7963924207       -1.7270713209        0.5812215570
 H          0.2860054509        1.2919843429       -1.6112283578
 C          0.2108953310       -0.7156103659       -2.3287059613
 C         -1.0309519289       -0.5081313745       -3.1404670511
 C          0.3172132412       -0.3096348934       -3.7658874506
 H          0.6684008514       -1.0370649321       -4.4820626418
 H          0.6372117612        0.7007135670       -3.9775069488
 H         -1.6076101788       -1.3724034440       -3.4331704727
 H         -1.6264484389        0.3709560551       -2.9369751297
 H          0.4890183811       -1.7298355063       -2.0745130831
