  62
        -98.93821178
 C         -2.6732916647        0.0081107255        0.3960494534
 C         -2.8344226808       -0.8032520515       -0.7594048987
 C         -2.4284166089       -2.2065815925       -0.6342158293
 C         -2.0035687504       -2.6710966416        0.5543034807
 C         -1.5494584902       -4.0740275553        0.8515321407
 C         -0.0681339473       -4.3155415038        0.5291420039
 C          0.2640080077       -4.3904371295       -0.9618120172
 H          1.2834711625       -4.7713696344       -1.0480742273
 H         -0.3949339143       -5.1137928032       -1.4429361057
 C          0.1765870194       -3.0468628261       -1.7003464832
 H          0.1828966847       -2.2265238584       -0.9774690168
 H          1.0577559907       -2.9161359182       -2.3335257747
 C         -1.0499402389       -2.8932925850       -2.6009550828
 H         -1.0169143182       -1.8955792055       -3.0477216041
 H         -1.0044454812       -3.6257423163       -3.4099790957
 C         -2.3945834423       -3.0457111952       -1.8751819363
 H         -2.5771386573       -4.0929561983       -1.6356122772
 H         -3.1861056819       -2.6935062075       -2.5408308633
 H          0.5219886612       -3.5231054990        0.9957909598
 H          0.2175984798       -5.2627628808        0.9918037665
 H         -2.1660840636       -4.7860719970        0.3033678730
 H         -1.7003676796       -4.2314929809        1.9215559914
 O         -1.9352107289       -1.8833949491        1.6573559534
 C         -2.1935270249       -0.5188326749        1.5949155220
 O         -1.9480882113        0.0720357426        2.6661496922
 O         -3.2877703487       -0.3655149114       -1.8502556275
 C         -2.9440754379        1.4911494196        0.2106826835
 C         -1.6818704919        2.1860502537       -0.2517270416
 C         -1.6982548816        3.0820436070       -1.3134645811
 C         -0.5255365572        3.6629639956       -1.7660620969
 C          0.6869244524        3.3513729147       -1.1787833991
 C          0.7124140723        2.4585413299       -0.1156729889
 C         -0.4662469572        1.8971170164        0.3507010814
 H         -0.4355302069        1.2100766586        1.1843976948
 N          1.9507620335        2.1093806239        0.4565471904
 S          3.0919715597        1.5216710106       -0.6526825510
 O          4.0199100408        2.5883802186       -0.9398736182
 O          2.4152403153        0.9529751143       -1.7946396902
 C          3.9032926091        0.2392227985        0.2811924655
 C          5.0120190964        0.5431143634        1.0474646782
 C          5.6093988084       -0.4659561079        1.7865862668
 C          5.0902721640       -1.7515052361        1.7487305061
 C          3.9762982951       -2.0406670346        0.9743690422
 C          3.3737082744       -1.0366690536        0.2336829229
 H          2.5115908464       -1.2185058124       -0.3893604902
 H          3.5748610409       -3.0410660691        0.9437374139
 H          5.5571914373       -2.5354231645        2.3237122721
 H          6.4768641947       -0.2472326456        2.3880091357
 H          5.3845511911        1.5541504949        1.0390575328
 H          1.8390265910        1.4701862112        1.2322056449
 H          1.6172323238        3.7628174903       -1.5388762598
 H         -0.5538335903        4.3518158031       -2.5967792900
 H         -2.6340699392        3.3040590941       -1.8045314021
 H         -3.6742083714        1.5571745026       -0.6076652679
 C         -3.5210896094        2.1891870538        1.4252563348
 C         -4.3376883661        3.4308092085        1.2354822433
 C         -5.0003047607        2.1553176537        1.6596356389
 H         -5.3566251770        2.0664464923        2.6746237603
 H         -5.6086599758        1.6318136557        0.9364683125
 H         -4.2387706189        4.2249325107        1.9592662756
 H         -4.5031047430        3.7747966329        0.2259339493
 H         -2.8797820809        2.1362767368        2.2950964640
