  62
        -98.93152750
 C         -1.7835784190       -1.2476544651       -0.3323699737
 C         -2.5158622025       -0.7899206347        0.7949784436
 C         -3.5882456148        0.1824692068        0.5475680320
 C         -3.8057584601        0.5979064563       -0.7130086462
 C         -4.8907391507        1.5416806724       -1.1490624273
 C         -6.2445508248        0.8051630058       -1.1971794910
 C         -7.2690240234        1.3029844659       -0.1774400565
 H         -7.6770161865        2.2558950232       -0.5210651415
 H         -8.0882158452        0.5811391607       -0.1579323133
 C         -6.7469219995        1.5038368479        1.2483579736
 H         -7.6207836576        1.6015364808        1.8959990398
 H         -6.2059823306        2.4492351688        1.3111657919
 C         -5.8487456722        0.3875380915        1.7969929041
 H         -6.1037324338        0.2317753329        2.8471782959
 H         -6.0434863078       -0.5521075018        1.2797831277
 C         -4.3405652175        0.6943971377        1.7447289338
 H         -4.1835807163        1.7727980452        1.8393267411
 H         -3.8557611035        0.2167331325        2.6014852390
 H         -6.0596598337       -0.2595531816       -1.0403648883
 H         -6.6772350144        0.9049207600       -2.1937813378
 H         -4.9373216571        2.3870706459       -0.4658828980
 H         -4.6213865750        1.9087101748       -2.1398353051
 O         -3.0944035539        0.1327189599       -1.7695025687
 C         -2.0663923728       -0.7988441554       -1.6218732457
 O         -1.5434405863       -1.1197850966       -2.7032993397
 H          0.3229048215        0.3112165679       -0.3331191303
 C          0.7710868183       -0.1967053975        0.5090812224
 C          0.3845288191       -1.4905410379        0.8278952644
 C          0.9686387569       -2.1103007849        1.9272680477
 C          1.9130805028       -1.4502361082        2.6918084683
 C          2.3060974391       -0.1654244626        2.3622208412
 C          1.7293489778        0.4629927317        1.2652481531
 N          2.1074241441        1.7723461812        0.8946479930
 S          2.9350583134        1.9320506852       -0.5528687021
 O          3.2460628186        3.3392712951       -0.6672681083
 O          2.1653680900        1.3453062058       -1.6178980166
 C          4.4393377450        1.0072564386       -0.2908451850
 C          4.4050530990       -0.3685344727       -0.4046155570
 C          5.5545307648       -1.0914813666       -0.1266652009
 C          6.7107588001       -0.4306491083        0.2594363122
 C          6.7292138558        0.9516869696        0.3683680359
 C          5.5820182465        1.6798325790        0.0965743284
 H          5.5493592562        2.7552690832        0.1646084796
 H          7.6303937692        1.4634445282        0.6654139535
 H          7.6027842784       -0.9972904693        0.4748310052
 H          5.5392535140       -2.1659176223       -0.2129402824
 H          3.4910196026       -0.8489152227       -0.7143469124
 H          2.6120393505        2.2653032135        1.6191701202
 H          3.0429615056        0.3550076937        2.9554658884
 H          2.3489797470       -1.9396201510        3.5490446041
 H          0.6582301588       -3.1099083914        2.1930771849
 C         -0.6509508819       -2.2080913579       -0.0042032823
 H         -1.0914558806       -2.9880701880        0.6400736092
 C         -0.0312517457       -2.9119967620       -1.1995729043
 C          1.1110798659       -2.3369510313       -1.9757426077
 C          1.3313276101       -3.5339402843       -1.1028880901
 H          1.4907393855       -4.4898152418       -1.5782626031
 H          1.8849642068       -3.3948305369       -0.1865211082
 H          1.0964078130       -2.4625941656       -3.0476162619
 H          1.4990263701       -1.3757410030       -1.6731129022
 H         -0.7741221071       -3.4492623268       -1.7787902769
 O         -2.2731910246       -1.1891856340        1.9658751134
