  62
        -98.93675820
 C         -2.4174930578       -1.1482887645        0.1554135967
 C         -2.4783383349        0.0556374532       -0.5892752679
 C         -3.8306065710        0.5326663090       -0.9244034367
 C         -4.9030288651       -0.1721166945       -0.5230045330
 C         -6.3309953058        0.2295211486       -0.7504558996
 C         -6.8643762732        1.0658808452        0.4212134708
 C         -5.9421500064        2.2144795300        0.8303611308
 H         -5.0144167166        1.8013684664        1.2331426401
 H         -6.4340910269        2.7521140752        1.6438475732
 C         -5.6082644088        3.1952928129       -0.3023191994
 H         -5.6990242588        4.2144374506        0.0792234825
 H         -6.3313018940        3.0866494163       -1.1115003620
 C         -4.1929122329        3.0559918470       -0.8662866852
 H         -3.4675931041        3.0695645662       -0.0486137961
 H         -3.9909468688        3.9260041598       -1.4967430984
 C         -3.9333030923        1.8058265400       -1.7163560966
 H         -2.9630530340        1.9331099128       -2.2056145245
 H         -4.6996618106        1.7192292124       -2.4893617983
 H         -6.9955685287        0.4085021978        1.2838378938
 H         -7.8426684879        1.4629766953        0.1445346470
 H         -6.4003256485        0.7960778415       -1.6769102002
 H         -6.9325619930       -0.6762972340       -0.8425787194
 O         -4.8051605443       -1.3205385728        0.1948493085
 C         -3.5697507502       -1.8224399498        0.5683067053
 O         -3.6279726721       -2.8576117341        1.2616957823
 H          1.3803077096       -0.9049332635       -0.3400584179
 C          1.0491600134       -0.3819144937        0.5413438720
 C         -0.1764202404       -0.6705859091        1.1180861842
 C         -0.5751568529        0.0575076642        2.2367571533
 C          0.2314763421        1.0490054645        2.7593877564
 C          1.4633724246        1.3222082038        2.1910566759
 C          1.8679380055        0.6054687486        1.0717583652
 N          3.0994616859        0.8770165187        0.4544878654
 S          3.9550117316       -0.4033014946       -0.2332229574
 O          3.4765336099       -0.6308847282       -1.5733729714
 O          3.9346280659       -1.5458542498        0.6534000419
 C          5.5924431361        0.3017169848       -0.2951676765
 C          5.8931054975        1.1868376148       -1.3136031509
 C          7.1538125297        1.7607895146       -1.3515381681
 C          8.0876154559        1.4426662033       -0.3762433872
 C          7.7721150871        0.5514869091        0.6382875273
 C          6.5123674249       -0.0251636964        0.6830584419
 H          6.2246527940       -0.7286998241        1.4477580660
 H          8.5012520205        0.3037311124        1.3928536234
 H          9.0684377984        1.8900577843       -0.4090600788
 H          7.4035393399        2.4519669959       -2.1403720792
 H          5.1384780843        1.3963392432       -2.0539446891
 H          3.6967203268        1.4758904234        1.0077138145
 H          2.0980876512        2.0927405915        2.6018552987
 H         -0.0954274117        1.6083521455        3.6233340094
 H         -1.5350551145       -0.1626491115        2.6856434550
 C         -1.0931336606       -1.7485863310        0.5943474361
 H         -1.3457238040       -2.4101145742        1.4407577333
 C         -0.4313739819       -2.6278062210       -0.4561370444
 C         -1.2466566571       -3.4136826824       -1.4378052336
 C         -0.4105088975       -2.2636180614       -1.9087126166
 H          0.4880154598       -2.4702228778       -2.4726166340
 H         -0.9043715478       -1.3505589652       -2.2014693707
 H         -2.3194939964       -3.2890983735       -1.4094954762
 H         -0.9291437525       -4.4167390280       -1.6798575438
 H          0.4573132142       -3.1189470707       -0.0681756630
 O         -1.4699797771        0.7095880534       -0.9605009330
