  62
        -98.93969227
 C          1.7851799775        1.3089640010        0.3447520071
 C          1.6249165677        0.1108340130       -0.3892448987
 C          2.4361111349       -1.0433945457        0.0496682703
 C          3.2561717404       -0.8965406017        1.1068151555
 C          4.2136207715       -1.9143906841        1.6622228433
 C          5.4961748178       -2.0335562349        0.8147136205
 C          5.2953677071       -1.9110611954       -0.6954045194
 H          4.7558480968       -0.9867954047       -0.9112591042
 H          6.2829117858       -1.8213514870       -1.1557347306
 C          4.5795588893       -3.0863114059       -1.3581509257
 H          4.4665016879       -2.8480748877       -2.4187495568
 H          5.2123206490       -3.9740569546       -1.2826926546
 C          3.2059421949       -3.4379299767       -0.7894712810
 H          2.7750787844       -4.2113124690       -1.4325705214
 H          3.3096404291       -3.8805415250        0.1977248759
 C          2.1954778980       -2.2927479654       -0.7627160705
 H          2.0300860891       -1.9415504272       -1.7871744519
 H          1.2329012631       -2.6984790560       -0.4251615598
 H          5.9785468950       -2.9847582492        1.0443429578
 H          6.1718069624       -1.2310904480        1.1198587399
 H          4.4890486852       -1.5811443559        2.6651092879
 H          3.7128641056       -2.8737818086        1.7584512613
 O          3.3630697517        0.2737793560        1.7970023181
 C          2.6359168160        1.3959372146        1.4445995078
 O          2.8235363772        2.3877911094        2.1793613661
 H         -0.3783993885        1.0480082036        1.6627912534
 C         -1.0248159011        1.4627434113        0.8984328133
 C         -0.4749906893        2.2697390625       -0.0891211221
 C         -1.3211053874        2.7951445114       -1.0577536102
 C         -2.6763091226        2.5128382432       -1.0364472895
 C         -3.2166789730        1.6966587559       -0.0601987682
 C         -2.3780882065        1.1630392871        0.9103653241
 N         -2.9085275595        0.3067017053        1.8899112373
 S         -3.9902796116       -0.8699135052        1.3905437650
 O         -5.3215285854       -0.3147169744        1.3669114989
 O         -3.7921722592       -1.9751912984        2.3036187713
 C         -3.5085985092       -1.3293374686       -0.2656373232
 C         -2.1931241755       -1.6709578842       -0.5077756969
 C         -1.8142021204       -2.0097425605       -1.7958973580
 C         -2.7556671516       -2.0125014320       -2.8134350924
 C         -4.0757362323       -1.6794670939       -2.5529332192
 C         -4.4574964999       -1.3288398301       -1.2680941334
 H         -5.4689255088       -1.0481865425       -1.0224551119
 H         -4.8054955414       -1.6838045364       -3.3465277630
 H         -2.4541091935       -2.2733704176       -3.8155691611
 H         -0.7816175350       -2.2414066743       -1.9996448903
 H         -1.4746164056       -1.6569181649        0.2969596041
 H         -2.2166685134       -0.0788425015        2.5154386404
 H         -4.2692614847        1.4651565434       -0.0304176007
 H         -3.3205847863        2.9295685723       -1.7951627632
 H         -0.9182072044        3.4249226134       -1.8336321959
 C          1.0082892766        2.5493049622       -0.0550647857
 H          1.1965078763        3.2931357528        0.7337024862
 C          1.5439711601        3.0866345222       -1.3675087366
 C          1.5524697635        4.5599134926       -1.6401673368
 C          2.8377566300        3.8421527567       -1.3606725145
 H          3.5320953331        3.6866492215       -2.1727641772
 H          3.3148643362        3.9962244208       -0.4032759364
 H          1.3674550915        4.8995505019       -2.6481364201
 H          1.1630986695        5.2140095203       -0.8746011671
 H          1.3628711746        2.4113792353       -2.1958555534
 O          0.8471010515        0.0028604203       -1.3711754407
