  62
        -98.93991181
 C          1.7909594954        1.2346411554       -0.2105621810
 C          1.0589393224        1.9637004555       -1.1814886699
 C         -0.0459422656        2.7857823439       -0.6757102180
 C         -0.2757397800        2.8523171091        0.6480842695
 C         -1.3288748559        3.6867632577        1.3259190092
 C         -2.7182915349        3.0372671286        1.3813624252
 C         -3.4619982372        2.9793481344        0.0468927359
 H         -4.4961240725        2.7068034190        0.2656206403
 H         -3.4749096303        3.9699210565       -0.4089448337
 C         -2.8862216038        1.9609019714       -0.9461871960
 H         -2.2459048879        1.2514518464       -0.4175076513
 H         -3.6949077290        1.3733919365       -1.3881545567
 C         -2.0906679761        2.5655313854       -2.1032922380
 H         -1.6832555296        1.7371408107       -2.6903271099
 H         -2.7583501758        3.1412359110       -2.7490247616
 C         -0.9281139237        3.4707163648       -1.6740691234
 H         -1.3115227542        4.4073062073       -1.2683797404
 H         -0.3232292761        3.6919088883       -2.5572083144
 H         -2.6205040367        2.0255108911        1.7807745544
 H         -3.3200376241        3.6191833090        2.0829987055
 H         -1.3999430176        4.6544900857        0.8282383990
 H         -0.9836818153        3.8473077339        2.3495128746
 O          0.4749516330        2.1709188205        1.5516166318
 C          1.4919093097        1.3086859646        1.1507514363
 O          2.0263918108        0.6955770081        2.0898940589
 O          1.3250438196        1.9333111091       -2.4135291612
 C          2.8723762112        0.2772050833       -0.7014532708
 C          2.4674161442       -1.1056521780       -0.2515511197
 C          3.0098313337       -1.8519878929        0.7867841699
 C          2.4560530984       -3.0719121119        1.1402062239
 C          1.3333854653       -3.5624799769        0.5013362716
 C          0.7700171531       -2.8214699798       -0.5314204389
 C          1.3568836477       -1.6271901326       -0.9139751604
 H          0.9077318566       -1.0636863043       -1.7198792791
 N         -0.3922779391       -3.2634110696       -1.1938769914
 S         -1.7044925954       -2.2312279467       -1.3191662144
 O         -2.7762107639       -3.0661401553       -1.8163935242
 O         -1.3603486762       -1.0883861505       -2.1223407064
 C         -2.0694861560       -1.7385081365        0.3558789462
 C         -1.2627157853       -0.8025960210        0.9716425449
 C         -1.5073108784       -0.4698248140        2.2948165090
 C         -2.5595430493       -1.0655739559        2.9732842491
 C         -3.3677881762       -1.9969806037        2.3387583965
 C         -3.1169997141       -2.3450089822        1.0212581223
 H         -3.7160830044       -3.0661233173        0.4891340129
 H         -4.1872687471       -2.4555594407        2.8682819252
 H         -2.7476429064       -0.7989677848        4.0013604802
 H         -0.8634777706        0.2474386504        2.7810554755
 H         -0.4542887351       -0.3463061915        0.4204405305
 H         -0.7072916057       -4.1769868393       -0.8983646757
 H          0.8914154482       -4.5009859842        0.7997382399
 H          2.8968179069       -3.6367533219        1.9475661266
 H          3.8472014648       -1.4856636563        1.3515680168
 H          2.7585845231        0.2902189775       -1.7982186967
 C          4.2627419287        0.8338125750       -0.4413441883
 C          4.9735520173        0.8516597959        0.8765885252
 C          5.4900969016       -0.0035394266       -0.2423095153
 H          6.3978520304        0.3068091176       -0.7384401090
 H          5.3726122704       -1.0732562852       -0.1805551861
 H          5.5259095727        1.7461024024        1.1282132683
 H          4.4863370326        0.4032980015        1.7262433760
 H          4.3983004210        1.7288526301       -1.0453150126
