  62
        -98.94105172
 C         -1.7406766161       -0.9948265015        0.3217219816
 C         -2.1279292797        0.3613003348        0.4614265136
 C         -3.5742177068        0.5980920245        0.5936094309
 C         -4.4277799088       -0.4391993440        0.6417727308
 C         -5.9226272309       -0.3540939447        0.7894078186
 C         -6.6661990328       -0.1208669085       -0.5328659924
 C         -6.5291128020        1.2856571796       -1.1173629108
 H         -7.2677525234        1.3737040659       -1.9165613140
 H         -6.7856425147        2.0216517956       -0.3547413488
 C         -5.1412431868        1.6011920330       -1.6927893687
 H         -5.2511290129        2.0794772676       -2.6687305695
 H         -4.5926210908        0.6702928765       -1.8542838054
 C         -4.2923574624        2.5317070312       -0.8260873608
 H         -3.3201006719        2.6598043549       -1.3097959984
 H         -4.7682239323        3.5131757691       -0.7672012732
 C         -4.0489634572        2.0197324650        0.5998409062
 H         -3.2641456595        2.6296200094        1.0544311845
 H         -4.9570631985        2.1168898607        1.1944674965
 H         -6.3181184644       -0.8544429085       -1.2638041403
 H         -7.7258439689       -0.3124640983       -0.3490082443
 H         -6.1771017157        0.4363512209        1.4959585746
 H         -6.2489397034       -1.3102898835        1.2040736509
 O         -4.0077333908       -1.7308285987        0.5812265544
 C         -2.6683730111       -2.0375161030        0.4033037195
 O         -2.4301610545       -3.2603621602        0.3479354313
 O         -1.3297750468        1.3328510630        0.4781799009
 C         -0.2910310493       -1.4030789034        0.1214515497
 C          0.6092177191       -0.6425491683        1.0620988714
 C          0.5192740434       -0.8982079349        2.4280552647
 C          1.3218046886       -0.2233833262        3.3270124699
 C          2.2467969666        0.7047244023        2.8813886571
 C          2.3410355988        0.9698191585        1.5207207776
 C          1.5257310496        0.2976620855        0.6200917868
 H          1.5823124908        0.5588361706       -0.4226429254
 N          3.2634592277        1.9076825997        1.0399871366
 S          3.9752139905        1.7176438705       -0.4540350106
 O          5.2166517918        2.4564314500       -0.3539047783
 O          3.0856271035        2.1341294829       -1.5082590614
 C          4.3208149654       -0.0276043970       -0.6035823062
 C          3.8702812668       -0.7183177837       -1.7097048079
 C          4.1425265977       -2.0732946180       -1.8136795156
 C          4.8562250175       -2.7118676877       -0.8117189489
 C          5.3084267804       -2.0030303834        0.2908002691
 C          5.0414555597       -0.6479311667        0.3977433443
 H          5.3867749308       -0.0694433066        1.2388593396
 H          5.8657384906       -2.5025183912        1.0667154037
 H          5.0615743524       -3.7676416552       -0.8919497432
 H          3.7935837717       -2.6251463133       -2.6722119738
 H          3.3128963548       -0.1834851743       -2.4623503392
 H          3.8948149942        2.2912807930        1.7264914330
 H          2.8768072931        1.2324316147        3.5810790213
 H          1.2336986898       -0.4254531252        4.3838784877
 H         -0.2018126132       -1.6259000898        2.7754422089
 H         -0.2541672550       -2.4667483666        0.4089562477
 C          0.1773190083       -1.3283264823       -1.3243335277
 C         -0.7600771475       -1.6111273611       -2.4588412897
 C         -0.2371229884       -0.2235576662       -2.2467410143
 H          0.4923463142        0.1699891879       -2.9402987934
 H         -0.9071373143        0.5281070971       -1.8596715482
 H         -0.3924593280       -2.1789541117       -3.3000811534
 H         -1.7936922483       -1.8113936763       -2.2159020921
 H          1.1922649751       -1.6985667810       -1.4345117160
