  62
        -98.93531796
 C          1.9641823545       -0.6858695991        0.3104768410
 C          3.1194511878       -1.2310114787       -0.3052793738
 C          4.4053618577       -0.5699115772       -0.0260140693
 C          4.4248949494        0.5314014359        0.7469316526
 C          5.5753647074        1.3902225814        1.2286226992
 C          6.9507382414        1.2934705873        0.5731860737
 C          7.0057559812        1.7752372112       -0.8759748205
 H          6.8524250874        2.8573538344       -0.8889774508
 H          8.0077885704        1.5770422698       -1.2628758879
 C          5.9777951639        1.1530476509       -1.8178820585
 H          6.1365960467        1.5781547089       -2.8127207656
 H          4.9718067222        1.4400588036       -1.5042366579
 C          6.0437084676       -0.3677134113       -1.9465477372
 H          5.3780856671       -0.6569858330       -2.7641460160
 H          7.0569680373       -0.6702053877       -2.2177593007
 C          5.6117631139       -1.1583386795       -0.6989279928
 H          5.3256019243       -2.1640386654       -1.0201884934
 H          6.4316418227       -1.2622702948        0.0079447066
 H          7.6184699317        1.9320150322        1.1581155946
 H          7.3360944991        0.2811081878        0.6516727254
 H          5.6853635538        1.1693345208        2.2963389285
 H          5.2199673385        2.4236213640        1.1640773203
 O          3.2835760680        1.0417029102        1.2914027056
 C          2.0349898278        0.4649801447        1.0952866032
 O          1.1135811675        1.0735977180        1.6690665497
 O          3.0815248837       -2.2406966975       -1.0575799520
 C          0.6375789145       -1.3685221905        0.0239174995
 C         -0.3844893595       -0.3570440782       -0.4252003133
 C         -0.3512158562        0.1119713077       -1.7347082558
 C         -1.2602880603        1.0579293519       -2.1711611623
 C         -2.2167567089        1.5619119490       -1.3077959967
 C         -2.2533808136        1.1050865263        0.0028811003
 C         -1.3535010189        0.1391958482        0.4329254333
 H         -1.3808516515       -0.1958597171        1.4579617871
 N         -3.2143096937        1.6243357791        0.8906184301
 S         -4.8200669644        1.5549509890        0.4304906135
 O         -5.0755633917        2.5439592009       -0.5862341347
 O         -5.5776509550        1.6883020258        1.6542353708
 C         -5.0124713680       -0.0827779975       -0.2481172586
 C         -5.0968169791       -1.1446193121        0.6308667248
 C         -5.1682692077       -2.4314518751        0.1232951529
 C         -5.1438311431       -2.6338347802       -1.2483819887
 C         -5.0591422946       -1.5573695845       -2.1174726842
 C         -4.9912330669       -0.2673209969       -1.6154985682
 H         -4.9293084350        0.5960101208       -2.2569329275
 H         -5.0422944774       -1.7180141170       -3.1833654982
 H         -5.1929998715       -3.6370147650       -1.6416410185
 H         -5.2379471255       -3.2706870316        0.7967322104
 H         -5.1196338536       -0.9452327708        1.6903141395
 H         -3.0966257300        1.3047147251        1.8407110609
 H         -2.9269277526        2.3088509375       -1.6242221969
 H         -1.2209542758        1.4118867847       -3.1902359380
 H          0.4045284026       -0.2697992027       -2.4072739615
 H          0.8565720221       -2.0317417868       -0.8283200728
 C          0.1281046438       -2.2630715109        1.1445429122
 C          1.0820369662       -3.0921987128        1.9498627524
 C          0.3388032433       -1.9641391023        2.5973900364
 H         -0.4565593227       -2.2065680531        3.2875951604
 H          0.8822045692       -1.0695789764        2.8584334691
 H          0.8038289365       -4.1050094229        2.1990343393
 H          2.1370623734       -2.9627222153        1.7569216590
 H         -0.8147000185       -2.7326881722        0.8801106451
