  62
        -98.93922429
 C         -2.3053889916       -0.8931265768        0.6465992388
 C         -3.3964501963       -0.9151213340       -0.2570637054
 C         -4.4709152628        0.0496772154        0.0158884082
 C         -4.3925765879        0.8642404214        1.0825397199
 C         -5.4174611996        1.8840002042        1.4992841207
 C         -5.2909918326        3.2293009183        0.7711940798
 C         -5.7282389463        3.2198244951       -0.6941899646
 H         -6.7275449858        2.7903757463       -0.7707668511
 H         -5.7955582050        4.2614049527       -1.0145486694
 C         -4.7717072380        2.4748109647       -1.6358815282
 H         -3.8045212047        2.3432578751       -1.1446420350
 H         -4.5960173047        3.0788038109       -2.5288861612
 C         -5.2777879610        1.1104504455       -2.1042282626
 H         -6.1742194902        1.2417261901       -2.7142320909
 H         -4.5059118864        0.6562188275       -2.7305057263
 C         -5.6001734152        0.1328488513       -0.9667381298
 H         -6.5205296055        0.4290541615       -0.4643580862
 H         -5.7389959291       -0.8613972897       -1.3977978461
 H         -4.2541576393        3.5668038794        0.8403765917
 H         -5.9115211704        3.9498531916        1.3090326302
 H         -6.4187840563        1.4796507989        1.3487223535
 H         -5.2678839354        2.0549832734        2.5675399081
 O         -3.3415341948        0.8348856676        1.9456727800
 C         -2.2740445278       -0.0213214360        1.7391714113
 O         -1.3730934891        0.0762012169        2.5983759505
 H          1.1984329982       -0.4118859082        0.7760180263
 C          0.9642992622       -0.5902804176       -0.2642766425
 C         -0.1897672498       -1.2821785966       -0.6056877269
 C         -0.4816072197       -1.4745742889       -1.9522139156
 C          0.3730918013       -0.9941848921       -2.9274370810
 C          1.5384626101       -0.3327742551       -2.5836393662
 C          1.8313315707       -0.1216634857       -1.2410858893
 N          2.9913120471        0.5734537587       -0.8629917142
 S          3.7797759412        0.1121762266        0.5564934152
 O          3.8099592890       -1.3295952699        0.6593161230
 O          3.1962773407        0.8227395721        1.6666167029
 C          5.4181397220        0.7394388845        0.2356764590
 C          5.6776385669        2.0761885328        0.4727642944
 C          6.9417364867        2.5722303812        0.1959960290
 C          7.9193551331        1.7287437755       -0.3108745968
 C          7.6447904215        0.3891360208       -0.5414940388
 C          6.3822844569       -0.1133233239       -0.2679153422
 H          6.1252898174       -1.1489208131       -0.4223695447
 H          8.4078898801       -0.2647608436       -0.9317013729
 H          8.9024552268        2.1174637323       -0.5243064644
 H          7.1596838215        3.6123383555        0.3773412935
 H          4.8891103176        2.6899285974        0.8764945712
 H          3.6376424659        0.7070483832       -1.6287727890
 H          2.2118795833        0.0277046965       -3.3465080859
 H          0.1349064638       -1.1482581009       -3.9690852983
 H         -1.3933656187       -1.9809687031       -2.2257131586
 C         -1.0920798421       -1.7969886264        0.4911595260
 H         -0.5375692912       -1.7124061461        1.4363226026
 C         -1.4591817117       -3.2532730537        0.2826184598
 C         -0.4063238070       -4.2967711135        0.4987482186
 C         -1.5409931259       -4.1633985263        1.4688536409
 H         -2.3033640815       -4.9278728316        1.4799904713
 H         -1.3342758958       -3.7383267768        2.4407886188
 H         -0.3880469001       -5.1545825567       -0.1557575504
 H          0.5718941951       -3.9597776913        0.8104820639
 H         -2.1736691725       -3.4117037455       -0.5138178402
 O         -3.4961118041       -1.6936140604       -1.2405856810
