  62
        -98.93968051
 C         -2.1423462903       -0.3420983195        0.3411630904
 C         -3.1964840804       -0.6442850785       -0.5560758299
 C         -4.1602816302        0.4384394818       -0.7981598287
 C         -3.9900971401        1.6379254912       -0.2156447674
 C         -4.8749385400        2.8427801715       -0.3873627562
 C         -6.1094906199        2.8457589407        0.5250295739
 C         -7.2035355101        1.8472032012        0.1445422129
 H         -8.0901898900        2.1076069707        0.7259935532
 H         -7.4566667901        1.9717156123       -0.9087142769
 C         -6.8460296702        0.3801027509        0.4205920214
 H         -6.0010896602        0.3349246501        1.1116851513
 H         -7.6874966702       -0.1134884696        0.9119895609
 C         -6.5079313303       -0.4352622079       -0.8274073995
 H         -6.2324456404       -1.4448390282       -0.5126394706
 H         -7.3904374504       -0.5100482171       -1.4665528695
 C         -5.3504101603        0.1339647829       -1.6578705889
 H         -5.6728652002        1.0279145935       -2.1908359380
 H         -5.0481111204       -0.6206406964       -2.3877989097
 H         -5.7849312499        2.6579562296        1.5511874137
 H         -6.5364592598        3.8507620108        0.4906085950
 H         -5.1898749900        2.9209677726       -1.4283319461
 H         -4.2632132099        3.7137909412       -0.1424461253
 O         -2.9446808200        1.9022938803        0.6139280928
 C         -2.0206637101        0.9211587498        0.9288296517
 O         -1.1470519500        1.2908015289        1.7414109821
 O         -3.3507619005       -1.7502372179       -1.1370446610
 C         -1.0748433104       -1.3493975801        0.7404090293
 C         -0.0044931004       -1.4649933091       -0.3191978309
 C         -0.2742564605       -2.0015761778       -1.5739770714
 C          0.7276665994       -2.0967268569       -2.5218949915
 C          2.0108079295       -1.6633554173       -2.2400014211
 C          2.2926113096       -1.1304298586       -0.9871309406
 C          1.2847566396       -1.0348007195       -0.0377446705
 H          1.5088465097       -0.6000945305        0.9251907500
 N          3.6025097796       -0.7316977791       -0.6673412003
 S          3.8554003798        0.5755772798        0.3685483811
 O          3.6035781498        0.1528076484        1.7230042107
 O          3.1251613299        1.7332919904       -0.0989735377
 C          5.6080028498        0.8085725398        0.1345455313
 C          6.0622187099        1.8234361206       -0.6858103277
 C          7.4273946899        1.9700859507       -0.8775296876
 C          8.3096419898        1.1019758900       -0.2523769786
 C          7.8386380498        0.0879657892        0.5686972104
 C          6.4754880798       -0.0628845509        0.7661132603
 H          6.0631835197       -0.8291215915        1.4014974795
 H          8.5275275997       -0.5836043914        1.0550977997
 H          9.3711739199        1.2182085600       -0.4036701985
 H          7.7964630300        2.7595637313       -1.5121749368
 H          5.3390741300        2.4783496712       -1.1449895870
 H          4.1939051796       -0.6602008983       -1.4847844902
 H          2.7909396994       -1.7386852166       -2.9823594513
 H          0.5056446493       -2.5096108858       -3.4944109120
 H         -1.2782493106       -2.3230117074       -1.8029127517
 H         -0.6006841303       -0.9331662211        1.6403846497
 C         -1.6438806405       -2.7119903404        1.0878959479
 C         -0.8344443906       -3.6334848214        1.9473488969
 C         -2.0711045005       -2.9884217718        2.4961855577
 H         -2.9458298505       -3.6001036519        2.6585384071
 H         -1.9539088703       -2.1932808126        3.2188691385
 H         -0.8577472507       -4.6908931311        1.7336182158
 H          0.1220169595       -3.2751152418        2.2986371973
 H         -2.2351786906       -3.1481655195        0.2941938175
