  62
        -98.93785405
 C         -2.5842526266       -1.1432726261        0.4874669953
 C         -3.4326301890       -0.8375258344       -0.6058079282
 C         -4.5959097900        0.0105506360       -0.2936673178
 C         -4.7912796748        0.4379317235        0.9659492705
 C         -5.9001819383        1.3495256350        1.4035363446
 C         -5.4719213010        2.8218080843        1.3297087711
 C         -4.8255004903        3.2107609220        0.0001320987
 H         -4.5935057554        4.2767662956        0.0511706033
 H         -3.8760237057        2.6802917634       -0.1030942686
 C         -5.6964695998        2.9354595491       -1.2336052631
 H         -5.6543103823        3.8050370223       -1.8928571595
 H         -6.7368127284        2.8083650306       -0.9319602659
 C         -5.2581317187        1.7266994593       -2.0624719409
 H         -5.7960118977        1.7540291061       -3.0138800525
 H         -4.1915320267        1.8045097360       -2.2873857969
 C         -5.5182731840        0.3537214891       -1.4298483903
 H         -6.5611052762        0.2854892883       -1.1136243338
 H         -5.3412635994       -0.4042912372       -2.1985154499
 H         -6.3500623457        3.4456337277        1.5062651700
 H         -4.7523056465        3.0134356675        2.1290450755
 H         -6.1575043884        1.1062746012        2.4358523910
 H         -6.7714208638        1.1815446833        0.7733870038
 O         -3.9584845651        0.1196317395        1.9903220716
 C         -2.8398457954       -0.6646838968        1.7755020774
 O         -2.1593434546       -0.8757282473        2.8006057932
 O         -3.2492774082       -1.2391268430       -1.7825589041
 C         -1.3401949841       -2.0073803527        0.3567595726
 C         -0.1508269778       -1.1705895822       -0.0383163229
 C         -0.1731823548       -0.3721578851       -1.1779404298
 C          0.9321789933        0.3828980097       -1.5248999939
 C          2.0750486726        0.3652302500       -0.7440649884
 C          2.1060219475       -0.4224987940        0.3982741255
 C          0.9967726727       -1.1857775715        0.7405149854
 H          1.0212323138       -1.7911908864        1.6371634326
 N          3.2576563440       -0.4290484246        1.2036012678
 S          4.7368011802       -0.7375659603        0.4693428643
 O          4.5747575734       -1.5598845472       -0.7070091653
 O          5.5747831927       -1.2724949223        1.5198517291
 C          5.3368599834        0.8746479581        0.0119307792
 C          5.4911768696        1.8195713423        1.0073377130
 C          5.9647560725        3.0768532480        0.6681700417
 C          6.2767583766        3.3653637078       -0.6522361124
 C          6.1199424957        2.4044084612       -1.6392761704
 C          5.6459269901        1.1448448931       -1.3067566414
 H          5.5042882801        0.3676569945       -2.0409222302
 H          6.3640012244        2.6303309173       -2.6649053242
 H          6.6449410080        4.3449787064       -0.9133105740
 H          6.0887041851        3.8266836090        1.4328789356
 H          5.2419109019        1.5542515810        2.0212671667
 H          3.1589754073       -0.9686472546        2.0514655055
 H          2.9369215366        0.9549357398       -1.0103739230
 H          0.9034447337        0.9953019064       -2.4134611457
 H         -1.0636638896       -0.3571814286       -1.7879140445
 H         -1.1518550580       -2.3874787042        1.3735769082
 C         -1.5473437640       -3.2209357744       -0.5401490990
 C         -0.8695206492       -3.4167587998       -1.8594188597
 C         -0.4529871493       -4.2383124317       -0.6790888334
 H         -0.7105211041       -5.2863371795       -0.6537792853
 H          0.5002914528       -4.0073869780       -0.2257891897
 H         -1.4396803485       -3.8859904822       -2.6465037648
 H         -0.1920166374       -2.6544213930       -2.2096951387
 H         -2.5581191026       -3.6084358729       -0.4626027281
