  62
        -98.94388391
 C         -1.8477948097       -1.1210023398       -0.4884238638
 C         -1.9111116859        0.0222284233        0.3451148315
 C         -3.2248650897        0.3012638787        0.9397114419
 C         -4.2591108819       -0.5253463689        0.7011861550
 C         -5.6498613056       -0.3874394934        1.2588096311
 C         -6.5502203760        0.5671779543        0.4627167503
 C         -6.2198620931        2.0524295307        0.6158076410
 H         -6.1719748812        2.3051534428        1.6755651131
 H         -7.0533277101        2.6114096259        0.1856152080
 C         -4.9222739681        2.4873917243       -0.0794234286
 H         -5.1002481452        3.4098814441       -0.6366590234
 H         -4.6263609422        1.7268118976       -0.8056094626
 C         -3.7517217123        2.7490358466        0.8684085876
 H         -3.9859497132        3.5979540991        1.5146253154
 H         -2.8785745852        3.0139038181        0.2672230212
 C         -3.3751065734        1.5522854096        1.7517086104
 H         -4.1212395322        1.4127883723        2.5337443569
 H         -2.4109230064        1.7607366229        2.2221837747
 H         -7.5757052532        0.4078230438        0.8041047088
 H         -6.5054182708        0.2904221699       -0.5932300299
 H         -5.5980782768       -0.0594971954        2.2975262683
 H         -6.0961076704       -1.3839845705        1.2312088070
 O         -4.1487095472       -1.6299320825       -0.0848696243
 C         -2.9528152411       -1.9416528166       -0.7123434745
 O         -2.9974628077       -2.9649087816       -1.4262748506
 O         -0.9289377760        0.7682410022        0.5854759664
 C         -0.5508137142       -1.4831026568       -1.1851461616
 C          0.5669175320       -1.7184549523       -0.1970942314
 C          0.2975183541       -2.2505811954        1.0598317167
 C          1.3107108769       -2.4553770972        1.9780059801
 C          2.6223051019       -2.1506137106        1.6586538932
 C          2.9068904956       -1.6462812305        0.3984405056
 C          1.8864681719       -1.4329039315       -0.5198500780
 H          2.1277365465       -1.0333911002       -1.4932357972
 N          4.2486155712       -1.3332171046        0.0764440426
 S          4.8420081535        0.0715754155        0.7762680174
 O          6.2058801717        0.1988024620        0.3152103382
 O          4.6480630850       -0.0052037035        2.2005763879
 C          3.8389131433        1.3622885074        0.0644210877
 C          2.5482990474        1.5298619350        0.5245106693
 C          1.7264850309        2.4516556182       -0.1048307240
 C          2.2104441441        3.1898447783       -1.1738339418
 C          3.5132116410        3.0170475032       -1.6185636794
 C          4.3341898712        2.0867862655       -1.0026089763
 H          5.3494303312        1.9119195291       -1.3209326401
 H          3.8856576796        3.5964966576       -2.4481971768
 H          1.5657870682        3.9026621681       -1.6643056099
 H          0.7072790785        2.5532340720        0.2323626886
 H          2.1916255836        0.9441254486        1.3561034531
 H          4.4172454796       -1.2913060953       -0.9198858306
 H          3.4222457121       -2.2818386833        2.3686364487
 H          1.0765325679       -2.8562811243        2.9528357395
 H         -0.7244697455       -2.4926243850        1.3181045759
 H         -0.7439155721       -2.4300154871       -1.7115670831
 C         -0.2045541911       -0.4158173537       -2.2070775845
 C          0.4331979247       -0.7813905166       -3.5130268762
 C         -0.9997846084       -0.3448362976       -3.4745852235
 H         -1.2573181228        0.6259457399       -3.8702701959
 H         -1.7666099508       -1.0925927900       -3.6189548448
 H          1.1601904170       -0.1059723527       -3.9390818547
 H          0.6347457961       -1.8256585618       -3.7003104080
 H          0.0827842528        0.5210286399       -1.7432108216
