  62
        -98.94142948
 C         -2.5632851950       -0.1492397995        0.1272490893
 C         -2.5510094096        0.9848645436        0.9766308160
 C         -2.2243222768        2.2667999947        0.3456517360
 C         -1.9416416562        2.3072495213       -0.9687010674
 C         -1.5754137125        3.5332339401       -1.7596376707
 C         -0.0873413042        3.8965832141       -1.6623253836
 C          0.3401063257        4.5248796465       -0.3352087924
 H          1.3318305160        4.9546857993       -0.4890290670
 H         -0.3363514479        5.3426758821       -0.0829596243
 C          0.4141721786        3.5342307928        0.8352633215
 H          0.4675994593        2.5128495127        0.4487882941
 H          1.3379980977        3.7001494112        1.3958654236
 C         -0.7388998972        3.6363410145        1.8345742392
 H         -0.6927444742        4.5997397939        2.3486205142
 H         -0.6079308987        2.8484986287        2.5815960403
 C         -2.1359211753        3.4812108856        1.2200830672
 H         -2.8538940252        3.3564582645        2.0349227665
 H         -2.3986856703        4.3752859325        0.6546734828
 H          0.5028437189        2.9934378608       -1.8373972232
 H          0.1306716775        4.6049457409       -2.4651211243
 H         -1.8105885036        3.3121394963       -2.8029306561
 H         -2.1832630262        4.3786609878       -1.4356583289
 O         -1.9706207256        1.2006425667       -1.7544740338
 C         -2.2286638050       -0.0559391605       -1.2253856091
 O         -2.1452774320       -0.9771767494       -2.0596265563
 H         -0.2061463843       -0.8755797161        0.7622932655
 C         -0.3459045453       -1.8967918653        0.4363252735
 C         -1.6319113029       -2.4221489732        0.3776759167
 C         -1.7876529419       -3.7418855684       -0.0207753984
 C         -0.6804695712       -4.5031871268       -0.3599183045
 C          0.5917059287       -3.9654938553       -0.3319758194
 C          0.7565773724       -2.6376237229        0.0537961221
 N          2.0254797152       -2.0356047582        0.0143883070
 S          2.2517189886       -0.4275988557        0.4266822563
 O          2.0140732560       -0.2131034619        1.8394697913
 O          1.5024478436        0.3969007585       -0.4869187793
 C          3.9962910694       -0.2869552086        0.0901009395
 C          4.4062717237       -0.0263467706       -1.2033616751
 C          5.7634080306        0.0436397547       -1.4755251789
 C          6.6833331268       -0.1493215340       -0.4555332020
 C          6.2574151448       -0.4077050575        0.8386339123
 C          4.9014083093       -0.4781570384        1.1169421553
 H          4.5231562707       -0.6650126996        2.1091222480
 H          6.9745669024       -0.5537923617        1.6302030575
 H          7.7388042915       -0.0951466383       -0.6704781240
 H          6.0975678378        0.2477874151       -2.4799532091
 H          3.6534828000        0.1220348915       -1.9604793210
 H          2.7952605852       -2.6377420466        0.2637997330
 H          1.4490695494       -4.5541939179       -0.6182216075
 H         -0.8149544661       -5.5301722017       -0.6642838767
 H         -2.7733942313       -4.1730098758       -0.0821957889
 C         -2.7678668907       -1.5089806807        0.7717968471
 H         -2.6697178306       -1.3077839325        1.8535521992
 C         -4.1464968557       -2.1206887790        0.5738731580
 C         -5.3191422740       -1.2773743293        0.1736072623
 C         -4.7616044544       -2.2867698461       -0.7822199991
 H         -5.3387099818       -3.1791042944       -0.9762047936
 H         -4.1941385564       -1.9351648236       -1.6289947094
 H         -6.2742021036       -1.4744507770        0.6373310653
 H         -5.1364965172       -0.2310761513       -0.0259814439
 H         -4.3507310619       -2.9033708026        1.2982650505
 O         -2.7955820671        0.9249557141        2.2134615013
