  62
        -98.93457747
 C         -1.5555102812       -0.3509498066        0.8394520356
 C         -2.9116530581       -0.4148578199        1.2442322926
 C         -3.9350315785       -0.4996000647        0.1841083052
 C         -3.5351863527       -0.4755770249       -1.1004097256
 C         -4.3831351848       -0.5089882839       -2.3442241975
 C         -5.0669729850        0.8369476972       -2.6316569573
 C         -5.6983391100        1.5088996757       -1.4152468482
 H         -6.0556664593        2.4934499586       -1.7287095295
 H         -4.9300426333        1.6709953495       -0.6569373942
 C         -6.8757333125        0.7597474704       -0.7955476290
 H         -7.6529050743        0.6265576339       -1.5514047011
 H         -7.2854759510        1.3966144869       -0.0073621988
 C         -6.5536544574       -0.6048425655       -0.1822001443
 H         -6.4533165239       -1.3673824615       -0.9499610910
 H         -7.4108171926       -0.8949318792        0.4324695265
 C         -5.3354442967       -0.6186555760        0.7357001738
 H         -5.3456677838       -1.5506096637        1.3139565608
 H         -5.4368908004        0.1803276784        1.4790531248
 H         -5.8263655155        0.6808236878       -3.3997957477
 H         -4.3139805418        1.5186967709       -3.0352240901
 H         -5.1151683787       -1.3083129622       -2.2765510518
 H         -3.7121131585       -0.7410374411       -3.1743699036
 O         -2.2213458151       -0.3712142888       -1.4466721557
 C         -1.2017088750       -0.3047689029       -0.5095691103
 O         -0.0660966259       -0.2187118224       -1.0098806259
 O         -3.2660140171       -0.3986132073        2.4539964847
 C         -0.5046463760       -0.2589732407        1.9317180145
 C          0.3949173470        0.9266785696        1.6944095686
 C         -0.0966837305        2.1987935478        1.9754893349
 C          0.6904745667        3.3190037587        1.7943519068
 C          1.9837315466        3.1897358805        1.3201115033
 C          2.4800093890        1.9278697121        1.0195177367
 C          1.6895601083        0.8023749279        1.2123652250
 H          2.0836732430       -0.1704174093        0.9684070259
 N          3.7992575098        1.7696631813        0.5456228887
 S          3.9980648559        1.1634430267       -1.0144356699
 O          5.3234463138        1.6116516642       -1.3969308047
 O          2.9232200336        1.5813778614       -1.8830905323
 C          4.0409493609       -0.6037181616       -0.8256817747
 C          5.1542583979       -1.1559581014       -0.2215853999
 C          5.2353792651       -2.5331563733       -0.0995651408
 C          4.2115092265       -3.3294539755       -0.5913951661
 C          3.1018837633       -2.7573605236       -1.1940441328
 C          3.0076331606       -1.3784456004       -1.3113925439
 H          2.1451912532       -0.8954091288       -1.7433142780
 H          2.3028345740       -3.3760661314       -1.5711141088
 H          4.2763010389       -4.4028461098       -0.5040729875
 H          6.0947473663       -2.9819624515        0.3720341232
 H          5.9338870651       -0.4995677295        0.1274641352
 H          4.3530965493        2.6118292937        0.6314731964
 H          2.6054931318        4.0611306855        1.1753547307
 H          0.2970185603        4.2984618411        2.0216012269
 H         -1.1095807120        2.2967032320        2.3421227632
 H         -1.0891152241       -0.0528430339        2.8438777257
 C          0.2603136612       -1.5459151989        2.1984583754
 C         -0.4544823753       -2.8637920395        2.1866723247
 C          0.5731113803       -2.5580561733        1.1406346853
 H          1.5251168618       -3.0656206540        1.1921138632
 H          0.2420821336       -2.3557659804        0.1349238620
 H         -0.2161035927       -3.5882310728        2.9505207570
 H         -1.4952321491       -2.8591442725        1.8963858647
 H          1.0083637549       -1.4101369738        2.9737009003
