  62
        -98.94848910
 C         -2.3535268965       -0.6276765058        0.1717665935
 C         -1.5437409099       -0.0187079949       -0.8163786577
 C         -1.6891405605        1.4364898810       -0.9655741122
 C         -2.5414855252        2.1009544212       -0.1659669234
 C         -2.7901974125        3.5805403984       -0.2104595541
 C         -1.8757917713        4.3433697612        0.7565265075
 C         -0.3966987635        3.9756710839        0.6356263773
 H          0.1547127529        4.6202638818        1.3246477783
 H         -0.2449378613        2.9490094803        0.9783576422
 C          0.1841006205        4.1242683490       -0.7775010916
 H         -0.4546522116        4.7739757512       -1.3778657231
 H          1.1608746817        4.6068605095       -0.7011232281
 C          0.4003752743        2.7962354979       -1.5054815571
 H          0.9174100350        2.1062613131       -0.8339655004
 H          1.0543981720        2.9770128102       -2.3630532794
 C         -0.8664335305        2.1071327155       -2.0296394434
 H         -1.4710590063        2.8242502482       -2.5896186814
 H         -0.5545304242        1.3120478355       -2.7131638422
 H         -2.0016633664        5.4129624817        0.5752016257
 H         -2.1969885793        4.1320705949        1.7792811607
 H         -2.6355631633        3.9359866617       -1.2276227209
 H         -3.8293573082        3.7592705415        0.0728530348
 O         -3.2728889818        1.4905581750        0.8022438423
 C         -3.1753010314        0.1251274987        1.0128091886
 O         -3.8655048058       -0.2969454207        1.9636650141
 H         -0.3193073993       -1.0375516339        1.8411373063
 C          0.0416122768       -1.8645837424        1.2460866815
 C         -0.8447147452       -2.5694802270        0.4403042268
 C         -0.3550797491       -3.6290395574       -0.3122128054
 C          0.9898432763       -3.9558658843       -0.2708073733
 C          1.8760004661       -3.2192835980        0.4932209372
 C          1.3946364018       -2.1560995071        1.2487304798
 N          2.2565312934       -1.3424573495        2.0156713396
 S          2.3909292584        0.2609360966        1.5402603345
 O          3.3134306462        0.8580430893        2.4828329818
 O          1.0842602589        0.8594284885        1.4621048511
 C          3.1667915111        0.1881676392       -0.0656430470
 C          2.4330786257       -0.2243253583       -1.1602403698
 C          3.0732968314       -0.3284438702       -2.3864387971
 C          4.4210002973       -0.0251926068       -2.4977248863
 C          5.1428056164        0.3853687467       -1.3868127324
 C          4.5126353989        0.4888677257       -0.1577839018
 H          5.0301221187        0.8055340118        0.7334561181
 H          6.1908042071        0.6230359342       -1.4738648871
 H          4.9103664970       -0.1084163452       -3.4553916818
 H          2.5046235000       -0.6485764664       -3.2447037299
 H          1.3819307238       -0.4497537436       -1.0620084383
 H          3.1847931932       -1.7279494041        2.1270650270
 H          2.9298353287       -3.4545364102        0.5009615347
 H          1.3560217173       -4.7818220597       -0.8612708811
 H         -1.0202701947       -4.1866306012       -0.9506551578
 C         -2.2863308608       -2.1221106989        0.4427081475
 H         -2.6722592013       -2.2416596632        1.4693028083
 C         -3.1819426613       -2.9586922838       -0.4597613310
 C         -4.4003116628       -2.3687047438       -1.1033547248
 C         -3.2234237626       -2.7580099509       -1.9438225037
 H         -3.3142293592       -3.6282562669       -2.5771769636
 H         -2.6049037186       -1.9770529000       -2.3562381289
 H         -5.2943080877       -2.9722184851       -1.1530243712
 H         -4.5931416037       -1.3176256032       -0.9428657614
 H         -3.2809671666       -3.9783273740       -0.1003432212
 O         -0.7471960445       -0.6525361063       -1.5570171959
