  62
        -98.94443708
 C         -1.9289649657       -0.8338216582        0.0303637924
 C         -2.4165465355        0.4831559489        0.2086778517
 C         -3.8315867932        0.5890514990        0.5883355124
 C         -4.5633074795       -0.5255849634        0.7682190202
 C         -6.0099501958       -0.5793285489        1.1787619568
 C         -6.9957400923       -0.4167849658        0.0137047141
 C         -7.0957611351        0.9966224814       -0.5612924050
 H         -7.2785015684        1.7048598141        0.2474448359
 H         -7.9703270162        1.0155242835       -1.2146562305
 C         -5.8678129500        1.4403596340       -1.3686516168
 H         -6.1939248526        1.9062950827       -2.3013364193
 H         -5.2733916408        0.5647784105       -1.6398258816
 C         -4.9667439567        2.4460133314       -0.6516704280
 H         -5.5119330479        3.3792837857       -0.4935049226
 H         -4.1115769531        2.6616159901       -1.2975192175
 C         -4.4275098697        1.9597706406        0.6999896978
 H         -5.2203122280        1.9720342233        1.4477028165
 H         -3.6340877727        2.6407641318        1.0181032363
 H         -7.9831658462       -0.7075200322        0.3795500825
 H         -6.7168199720       -1.1138430531       -0.7798039976
 H         -6.2058501631        0.1841829595        1.9320761384
 H         -6.1687039191       -1.5615643375        1.6289949162
 O         -4.0475754432       -1.7740260657        0.6119080693
 C         -2.7305437948       -1.9587319257        0.2239092938
 O         -2.3937934385       -3.1536440067        0.0977864227
 O         -1.7122642031        1.5159460050        0.0636048479
 C         -0.4877887726       -1.0585714209       -0.3923842758
 C          0.4458955985       -0.4116093964        0.6010732004
 C          0.2923223093       -0.7132734059        1.9526521306
 C          1.1058246965       -0.1311241683        2.9040293019
 C          2.1007365907        0.7549098665        2.5278335931
 C          2.2689776394        1.0565547730        1.1826247171
 C          1.4487147586        0.4683084615        0.2276501758
 H          1.5927768319        0.7364541863       -0.8049450992
 N          3.2604684750        1.9641756312        0.7768877732
 S          4.2349233386        1.6289002494       -0.5382304567
 O          5.3450192714        2.5465993159       -0.4078180116
 O          3.4798043457        1.7121053114       -1.7614362900
 C          4.7916256890       -0.0419981529       -0.2593271034
 C          5.8144993835       -0.2457358147        0.6466671651
 C          6.2159309480       -1.5417851179        0.9250871874
 C          5.5847822094       -2.6079554726        0.3019913446
 C          4.5607338824       -2.3864525048       -0.6055512840
 C          4.1569748056       -1.0915439870       -0.8912352353
 H          3.3682954575       -0.8799594683       -1.5940144950
 H          4.0726293280       -3.2165744873       -1.0910130097
 H          5.8940513007       -3.6176155966        0.5219469072
 H          7.0157028119       -1.7174549460        1.6263612502
 H          6.2863825201        0.6105351071        1.1006769466
 H          3.8021058254        2.3544327327        1.5340530182
 H          2.7319480411        1.2188776845        3.2704338480
 H          0.9670367724       -0.3684936873        3.9480188036
 H         -0.4874525005       -1.4034023620        2.2458406222
 H         -0.3281943281       -2.1461830351       -0.3560160913
 C         -0.2867801097       -0.5847376532       -1.8163994251
 C          0.7208888420       -1.2538599472       -2.7000525808
 C         -0.7436588160       -1.4582348925       -2.9444221483
 H         -1.1959048343       -0.9921869879       -3.8070592407
 H         -1.1767009939       -2.4140335176       -2.6864510286
 H          1.2817540082       -0.6461268607       -3.3951038813
 H          1.2751230350       -2.0817705102       -2.2837697765
 H         -0.4338373418        0.4838302474       -1.9277189785
