  62
        -98.94419567
 C          1.6857275000        1.3116592290        0.2616496791
 C          1.2981285098        0.2313960488       -0.5614207405
 C          1.8844495199       -1.0810582411       -0.2457660805
 C          2.7361631602       -1.1820216208        0.7890506293
 C          3.4745133504       -2.4056972607        1.2580886493
 C          4.8530314002       -2.5120120709        0.5829509089
 C          4.8625003498       -3.2540624611       -0.7527190710
 H          5.8666201896       -3.1554976212       -1.1714094313
 H          4.6840615099       -4.3162645211       -0.5733575507
 C          3.8480971394       -2.7536128914       -1.7835026207
 H          3.8391300494       -1.6622501914       -1.7880325110
 H          4.1830477191       -3.0804452216       -2.7696600608
 C          2.4269292595       -3.2829925013       -1.5392231902
 H          2.4625724198       -4.0829753812       -0.8002502200
 H          2.0419739092       -3.7283787416       -2.4589990900
 C          1.4087558197       -2.2214957913       -1.1037292201
 H          0.9836063494       -1.7427231915       -1.9918960700
 H          0.5749456498       -2.7061379512       -0.5818533797
 H          5.2366108901       -1.4979544609        0.4442565385
 H          5.5346257304       -3.0288083407        1.2616574488
 H          3.6204907908       -2.2828188505        2.3335603292
 H          2.8802139604       -3.2991992108        1.0907083197
 O          3.0943639805       -0.1106713407        1.5517663489
 C          2.5644222804        1.1462698493        1.3291330188
 O          2.9477692806        2.0219482094        2.1334962585
 H         -0.4324686895        1.1382467593        1.6212184098
 C         -1.0379149798        1.7148960391        0.9366270599
 C         -0.4312546201        2.5800559489        0.0349200495
 C         -1.2414419604        3.3164062087       -0.8210200204
 C         -2.6170128703        3.1638085587       -0.7919486199
 C         -3.2112433600        2.2602001589        0.0699400605
 C         -2.4099896298        1.5279351691        0.9378557504
 N         -2.9582230294        0.5750322093        1.8236255208
 S         -2.5290350595       -1.0263014708        1.5640474710
 O         -3.2814444392       -1.7774687906        2.5472404514
 O         -1.0972963395       -1.1709212707        1.6112914205
 C         -3.1647805200       -1.3904896011       -0.0632796887
 C         -2.4582665504       -0.9861572614       -1.1779860791
 C         -3.0095582408       -1.2123083416       -2.4306771088
 C         -4.2454801908       -1.8285025117       -2.5475717983
 C         -4.9418613705       -2.2272799615       -1.4162539180
 C         -4.4005347800       -2.0021936312       -0.1614299682
 H         -4.9022111097       -2.2970434110        0.7462298220
 H         -5.9023102505       -2.7084777515       -1.5077028376
 H         -4.6670448011       -1.9991156419       -3.5256622181
 H         -2.4622183111       -0.8981131418       -3.3048676391
 H         -1.4951791804       -0.5111513313       -1.0687489895
 H         -3.9649595094        0.6308900193        1.9036021411
 H         -4.2816311000        2.1189291389        0.0730403509
 H         -3.2325524006        3.7419070886       -1.4639871898
 H         -0.7935886706        4.0066761186       -1.5171945507
 C          1.0755669999        2.6826604690        0.0370550090
 H          1.3814091102        3.2986871692        0.8959694988
 C          1.6317910295        3.3003764587       -1.2306786213
 C          1.8179721694        4.7834900187       -1.3374562217
 C          3.0103064395        3.8864147187       -1.2011699619
 H          3.6516320792        3.7419366086       -2.0576225021
 H          3.5338397298        3.8661450089       -0.2560418620
 H          1.6443711191        5.2577681485       -2.2916683217
 H          1.5408094397        5.3861993189       -0.4857676617
 H          1.3395811792        2.7533081685       -2.1197387211
 O          0.4930698095        0.3579559286       -1.5228313603
