  62
        -98.93936125
 C         -1.7470000871       -1.5700183158       -0.3762909945
 C         -0.6702612895       -1.7090495389       -1.2870594129
 C          0.4900642729       -2.5044747105       -0.8527889981
 C          0.4723025495       -3.0407727413        0.3808626912
 C          1.5725792501       -3.8346658016        1.0291604133
 C          2.7024318431       -2.9386570968        1.5791632569
 C          2.9818045352       -1.6690591957        0.7739398739
 H          2.0452862632       -1.1229994408        0.6458002229
 H          3.6289790796       -1.0265438016        1.3789312512
 C          3.6625478833       -1.8783035768       -0.5782420420
 H          3.6823157838       -0.9133983988       -1.0911940007
 H          4.6967502370       -2.1851386213       -0.4024085838
 C          3.0231049112       -2.9162027142       -1.4979956681
 H          3.1260300240       -3.9064671220       -1.0617801847
 H          3.5965185184       -2.9228027616       -2.4297680434
 C          1.5717209348       -2.6495074617       -1.8940724545
 H          1.2511122356       -3.4516283943       -2.5710256360
 H          1.5273865502       -1.7272352813       -2.4816365530
 H          3.6144843350       -3.5321115545        1.6621121331
 H          2.4132405334       -2.6175655621        2.5825943931
 H          1.1259366267       -4.3821489041        1.8617185837
 H          1.9546733689       -4.5628872949        0.3179601903
 O         -0.5752156781       -2.8810159565        1.2309228260
 C         -1.6963235773       -2.1302978133        0.9008237471
 O         -2.5438006921       -2.0780082706        1.8106895394
 O         -0.6797748624       -1.1731328053       -2.4299241672
 C         -2.8878924733       -0.6811705244       -0.8469040802
 C         -2.4451267010        0.7602803877       -0.7747036854
 C         -2.7239620940        1.6630146820       -1.7940127938
 C         -2.2629560121        2.9659006702       -1.7231916971
 C         -1.4845530354        3.3811269921       -0.6571172159
 C         -1.1940873265        2.4835793155        0.3637444194
 C         -1.7046268784        1.1948103858        0.3149417035
 H         -1.4803443718        0.5094734466        1.1185249407
 N         -0.3672782438        2.8448196990        1.4458630277
 S          0.9983445045        1.9134216912        1.7301056158
 O          0.6204100447        0.5606832222        2.0415309150
 O          1.7252658740        2.6319018799        2.7540427743
 C          1.9163201582        1.9758926999        0.2011801166
 C          1.4865710129        1.2277936077       -0.8766071467
 C          2.1706961719        1.3295439259       -2.0777525398
 C          3.2716879929        2.1655855753       -2.1803152303
 C          3.6948429054        2.9062938509       -1.0868760740
 C          3.0080597594        2.8179577971        0.1131556281
 H          3.2989200245        3.3753949884        0.9888009273
 H          4.5535227440        3.5532023510       -1.1668097049
 H          3.8019525528        2.2363580714       -3.1168533990
 H          1.8267830810        0.7520476358       -2.9216682094
 H          0.6336048280        0.5752552014       -0.7760565991
 H         -0.1145579920        3.8235548976        1.4584866501
 H         -1.0967330294        4.3876933220       -0.6170092440
 H         -2.4895393921        3.6590670069       -2.5186150776
 H         -3.2864626541        1.3323118440       -2.6544140188
 H         -3.0293049105       -0.9220846815       -1.9137530310
 C         -4.2133045096       -0.9249855279       -0.1461514215
 C         -4.7367218315       -0.0320442613        0.9342959901
 C         -5.3878412635       -0.0309866893       -0.4145384387
 H         -6.3631509519       -0.4817897256       -0.5168029110
 H         -5.2293211937        0.8324736981       -1.0422748415
 H         -5.2446078282       -0.4976807347        1.7647768734
 H         -4.1415095884        0.8224623941        1.2185046879
 H         -4.4221072991       -1.9832713801       -0.0333052567
