  62
        -98.94226082
 C         -0.9716690487       -1.4229842992        0.8482879944
 C         -1.9702067853       -1.2257955174       -0.1317190685
 C         -2.8165705424       -0.0267519743        0.0194793371
 C         -2.5374879907        0.8601380491        0.9917410483
 C         -3.2080454609        2.1588683125        1.3907034131
 C         -4.2929888886        2.7769935496        0.5148229861
 C         -3.7888876814        3.3522988904       -0.8090625721
 H         -4.6545555412        3.6493589198       -1.4055793917
 H         -3.2072886677        4.2530996996       -0.5960588651
 C         -2.9060996762        2.4290549011       -1.6457343396
 H         -1.9888744825        2.1832135598       -1.1058830296
 H         -2.5985519679        2.9806757567       -2.5392503989
 C         -3.5660384452        1.1329993662       -2.1097699176
 H         -4.4774416820        1.3611129177       -2.6674627618
 H         -2.8670516008        0.6403087354       -2.7915389495
 C         -3.9109330710        0.1307962440       -0.9972209525
 H         -4.8506368402        0.3883173723       -0.5137642405
 H         -4.0378843421       -0.8518220597       -1.4618240180
 H         -5.0909031343        2.0603683409        0.3441390592
 H         -4.7253448490        3.6022554091        1.0873876080
 H         -2.3999668628        2.8865430478        1.5210797580
 H         -3.6255626007        1.9802004554        2.3879403064
 O         -1.5147377552        0.6598314676        1.8750919699
 C         -0.7174259463       -0.4691012798        1.8309241806
 O          0.1717169170       -0.5052929385        2.7059906863
 O         -2.1692079751       -2.0210994378       -1.0878740089
 C         -0.0252672906       -2.6099018862        0.7633755025
 C          0.8136569689       -2.4364840817       -0.4802707012
 C          0.9592055422       -3.3964542629       -1.4716459846
 C          1.6935404876       -3.1125678043       -2.6114369450
 C          2.2735923190       -1.8707552867       -2.7948824937
 C          2.1437627256       -0.9079652200       -1.7994076274
 C          1.4476310689       -1.2107479647       -0.6429969216
 H          1.3555738768       -0.4641372515        0.1324477730
 N          2.7116477283        0.3679876180       -1.9306310865
 S          1.9154412826        1.6880866108       -1.2737509349
 O          0.4804050388        1.5343373581       -1.3094498318
 O          2.4456607599        2.8214436887       -2.0059573162
 C          2.4979475196        1.7787830555        0.4046497034
 C          1.6196601938        2.1642010212        1.3965757929
 C          2.0794709118        2.2694915243        2.6989959048
 C          3.4070016441        1.9925515155        2.9834359989
 C          4.2798217363        1.6135291704        1.9746256606
 C          3.8253902322        1.5069413759        0.6703729560
 H          4.4724370487        1.2106208430       -0.1383222125
 H          5.3113573248        1.3973391376        2.2020705704
 H          3.7606479978        2.0695364515        3.9994968631
 H          1.3951296534        2.5517148227        3.4826873312
 H          0.5888014810        2.3509871205        1.1376018885
 H          3.1090233733        0.5738790164       -2.8355605825
 H          2.8166108157       -1.6427205168       -3.6993969828
 H          1.7967461989       -3.8641242009       -3.3795010449
 H          0.4863462881       -4.3584360983       -1.3617756789
 H          0.6390349061       -2.5291686162        1.6361883322
 C         -0.7692972571       -3.9247363980        0.8303675487
 C         -0.0658551219       -5.1574535729        1.3112633865
 C         -1.1025556373       -4.5022299243        2.1720480665
 H         -2.0557020378       -4.9930648085        2.2989190618
 H         -0.7740879749       -3.9552332325        3.0439278899
 H         -0.3080317524       -6.1026690051        0.8495694994
 H          0.9689357590       -5.0603140309        1.6027574032
 H         -1.5078170120       -4.0281379673        0.0444958454
