  62
        -98.93984697
 C          1.6597181529        0.6063658950        0.4892087856
 C          2.9397071051        0.9709147764        0.9813088717
 C          4.0559402582        0.8500138999        0.0374498174
 C          3.8269984024        0.4042352916       -1.2107019217
 C          4.8542764628        0.2522250990       -2.2996099584
 C          5.6332766271       -1.0688296310       -2.2417576323
 C          6.6533718478       -1.1723820168       -1.1072365206
 H          7.2730993442       -2.0474357161       -1.3129211118
 H          7.3062955508       -0.2992356357       -1.1269134871
 C          6.0336408352       -1.3234115862        0.2890997726
 H          4.9891527203       -1.6292373895        0.1920988400
 H          6.5496974718       -2.1183401378        0.8322947422
 C          6.1036369241       -0.0645488992        1.1537575189
 H          7.1476539251        0.1761577692        1.3658262246
 H          5.6064995966       -0.2737812924        2.1043313099
 C          5.4350084188        1.1682805478        0.5313146353
 H          5.3434332995        1.9352389534        1.3042308974
 H          6.0486118432        1.5596769318       -0.2798405483
 H          6.1642180202       -1.1759514933       -3.1905406298
 H          4.9184619108       -1.8918232004       -2.1668723889
 H          5.5518485307        1.0896101523       -2.2651835182
 H          4.3109740543        0.2898097705       -3.2463643257
 O          2.5894029691        0.0447608001       -1.6409424461
 C          1.4804962238        0.1073711940       -0.8020430867
 O          0.4302283862       -0.2991680858       -1.3314575822
 O          3.1393913650        1.3782839401        2.1562343580
 C          0.4875762318        0.7043667193        1.4494744642
 C         -0.2882754804       -0.5881742827        1.4648670183
 C          0.3321202471       -1.7202983261        1.9882283204
 C         -0.3322174140       -2.9289717699        2.0460309847
 C         -1.6333262945       -3.0308942518        1.5863624950
 C         -2.2619576066       -1.9106308177        1.0574201689
 C         -1.5896172918       -0.6962628864        0.9986915949
 H         -2.0813547162        0.1578685852        0.5634047105
 N         -3.6004186045       -1.9845791955        0.6361950347
 S         -4.0705635212       -1.3578391804       -0.8460596369
 O         -5.3569089865       -1.9813944236       -1.0895474915
 O         -3.0746994857       -1.5604893577       -1.8702098576
 C         -4.3430740481        0.3747659078       -0.5503760613
 C         -5.0537542025        0.7520089186        0.5725187118
 C         -5.3232708352        2.0962642454        0.7718551586
 C         -4.8916951932        3.0334063213       -0.1552600611
 C         -4.1836845053        2.6369715389       -1.2794432619
 C         -3.9037028055        1.2936681931       -1.4811750248
 H         -3.3395015459        0.9417302544       -2.3303345592
 H         -3.8468792566        3.3658053605       -1.9998658195
 H         -5.1055825474        4.0793592680       -0.0008366036
 H         -5.8703417822        2.4097944169        1.6463133839
 H         -5.3769684353       -0.0060126710        1.2660577228
 H         -4.0237905918       -2.8918928816        0.7738376722
 H         -2.1592012530       -3.9728816015        1.6330925376
 H          0.1627380592       -3.7986183502        2.4517027922
 H          1.3490585865       -1.6373180541        2.3476378523
 H          0.9636509213        0.8158816106        2.4384951448
 C         -0.3871334243        1.9332676448        1.2586420825
 C          0.2055205788        3.2254737445        0.7835850938
 C         -0.7530881706        2.4747515201       -0.0888922555
 H         -1.7470324971        2.8765754180       -0.2196138813
 H         -0.3745513032        1.9609098244       -0.9584560372
 H         -0.1269934458        4.1439005357        1.2429042657
 H          1.2516027957        3.2241225397        0.5135877843
 H         -1.1466860458        2.0075340740        2.0310833749
