  62
        -98.94688154
 C          1.2426947969        1.2197275950        0.0861034891
 C          2.0025985730        0.7017251448        1.1605807304
 C          2.6776838609       -0.5787990533        0.9109429144
 C          2.5078743838       -1.1901429631       -0.2760148890
 C          3.1840388898       -2.4667140675       -0.6830817406
 C          4.5180764541       -2.1869302261       -1.3896244199
 C          5.4237875710       -1.2121072362       -0.6373526226
 H          6.3470862819       -1.1152327926       -1.2126125349
 H          4.9519020350       -0.2270840174       -0.6194945985
 C          5.7596186439       -1.6376153054        0.7988351874
 H          5.5597297469       -2.7020596914        0.9272010838
 H          6.8277976620       -1.4865427448        0.9686810407
 C          5.0214769885       -0.8494243407        1.8825036462
 H          5.1460555871        0.2219053248        1.7051154963
 H          5.4869222255       -1.0769575516        2.8453632205
 C          3.5221289226       -1.1442809119        2.0181869926
 H          3.3663973595       -2.2209109413        2.1131925665
 H          3.1724218662       -0.6649657105        2.9375435113
 H          5.0398864222       -3.1352934364       -1.5302808033
 H          4.3068167765       -1.7654545815       -2.3748959851
 H          3.3519022126       -3.0813689343        0.1991111321
 H          2.5279885745       -3.0022981780       -1.3701730219
 O          1.7332990619       -0.6835930049       -1.2670726012
 C          1.0798388959        0.5299602753       -1.1164395221
 O          0.4017880866        0.8749719631       -2.0997724419
 H         -0.8917653101        0.7600863682        1.6170533124
 C         -1.5283850776        1.3089304929        0.9335418225
 C         -0.9680772346        2.3072338852        0.1446700823
 C         -1.7960643076        3.0058444329       -0.7225488711
 C         -3.1434020937        2.6959199665       -0.8081907726
 C         -3.6940639976        1.6942414063       -0.0304069516
 C         -2.8753571597        0.9986996893        0.8504076775
 N         -3.4241303888       -0.0328954087        1.6456090829
 S         -4.0013610469       -1.3640095820        0.8064192317
 O         -5.1761278875       -0.9748093662        0.0695946173
 O         -4.1829472314       -2.3965907252        1.8016118024
 C         -2.6928449918       -1.8155681900       -0.3171076153
 C         -1.7171384753       -2.6881545025        0.1214570186
 C         -0.6785633251       -3.0162886494       -0.7341884130
 C         -0.6288494603       -2.4601016737       -2.0030585934
 C         -1.6082430779       -1.5743946569       -2.4232399305
 C         -2.6520770138       -1.2462688161       -1.5737832019
 H         -3.4340204270       -0.5653280360       -1.8676570097
 H         -1.5521703058       -1.1277689771       -3.4023070182
 H          0.1823246256       -2.7074542160       -2.6694215887
 H          0.0893682604       -3.6993085700       -0.4067476559
 H         -1.7965765242       -3.1059498524        1.1126914363
 H         -2.7886065653       -0.3512347165        2.3643584863
 H         -4.7362160555        1.4275918727       -0.0999114566
 H         -3.7733175443        3.2417324419       -1.4941225097
 H         -1.3862579178        3.7858883250       -1.3424351540
 C          0.5169067083        2.5416706358        0.2659423990
 H          0.7314207738        2.8569241508        1.2978132497
 C          1.0537043417        3.5887480950       -0.6856421143
 C          0.9433244103        5.0430823618       -0.3407319372
 C          2.2771507427        4.3617189313       -0.2976199645
 H          3.0032462098        4.5967590445       -1.0613662165
 H          2.7136067327        4.1499184050        0.6677502683
 H          0.4750080445        5.3000463506        0.5973666780
 H          0.7554999109        5.7496718898       -1.1348958892
 H          0.9549266291        3.2985880694       -1.7253507981
 O          2.1044931940        1.2784949856        2.2783110173
