  62
        -98.93755132
 C         -1.3737045708       -1.6716891197       -0.1018780304
 C         -1.4739473007       -0.2617961396       -0.1156685096
 C         -2.8338580907        0.3023852804       -0.0046821694
 C         -3.8819622907       -0.5344155197        0.0963378800
 C         -5.3462118807       -0.2008446697        0.2343942301
 C         -5.8877547706        0.9171196709       -0.6698379093
 C         -6.2356188906        2.1991816405        0.0888952114
 H         -6.9815639706        2.7532196308       -0.4855049483
 H         -6.6963393407        1.9255597099        1.0404605512
 C         -5.0604909606        3.1402159003        0.3484455420
 H         -5.4150841406        3.9357019099        1.0081733224
 H         -4.7594278405        3.6079837008       -0.5913240777
 C         -3.8284281207        2.4901801698        0.9814003317
 H         -4.1255543908        1.7805584094        1.7527516513
 H         -3.2542094107        3.2759650595        1.4764513922
 C         -2.9031311906        1.8047238404       -0.0349300886
 H         -3.1612429205        2.1251057809       -1.0482324884
 H         -1.8699504706        2.1259506502        0.1313158617
 H         -5.1749971106        1.1283669113       -1.4652899391
 H         -6.7995078706        0.5489610312       -1.1431842196
 H         -5.8708341908       -1.1354918995        0.0233165096
 H         -5.5488850908        0.0387817198        1.2813462902
 O         -3.7328525508       -1.8915266397        0.1165956193
 C         -2.4910948108       -2.4931585597        0.0237264091
 O         -2.5137807609       -3.7402136397        0.0690175184
 H          2.5072263793       -1.1760464097       -0.4243567199
 C          2.1307922992       -1.2087728902        0.5833009101
 C          0.8975148391       -1.7745718803        0.8612575897
 C          0.4704001290       -1.8265276210        2.1862598896
 C          1.2498026890       -1.3064309816        3.2005225300
 C          2.4662438790       -0.7103375115        2.9152124704
 C          2.9062370591       -0.6643589708        1.5985024805
 N          4.1389062692       -0.0806716107        1.2789089009
 S          4.3800313193        0.6798339601       -0.1871358787
 O          4.5624467894       -0.3004014993       -1.2291013392
 O          5.5141081093        1.5482702199        0.0548151819
 C          2.9346201994        1.6706474704       -0.5159403082
 C          2.5114241994        2.5650260199        0.4456940722
 C          1.4148526494        3.3662195501        0.1771707726
 C          0.7670189895        3.2647391308       -1.0432072375
 C          1.2055341595        2.3636895313       -1.9987512080
 C          2.2988103795        1.5566440511       -1.7339759683
 H          2.6671713495        0.8356282215       -2.4471888387
 H          0.6925005896        2.2786177418       -2.9437321581
 H         -0.0906486505        3.8861204609       -1.2487669172
 H          1.0640539094        4.0627857797        0.9221342430
 H          3.0376886593        2.6270742693        1.3847216523
 H          4.5976586292        0.4018679089        2.0368151012
 H          3.0702854090       -0.2888390220        3.7040884307
 H          0.9037484089       -1.3532267622        4.2222099999
 H         -0.4892179710       -2.2751526111        2.4065750993
 C         -0.0070711608       -2.3227015697       -0.2148410607
 H         -0.1588122509       -3.3962267398       -0.0313132513
 C          0.5423113193       -2.1356817589       -1.6134366205
 C          1.5482192393       -3.0998035086       -2.1641685710
 C          0.1462351293       -3.0940301983       -2.6939922811
 H         -0.0297163606       -2.7084807377       -3.6870374109
 H         -0.5086163207       -3.9085113484       -2.4197898716
 H          1.8479939092       -3.9228873590       -1.5330168214
 H          2.3423677994       -2.7178507883       -2.7885170107
 H          0.6376538094       -1.0898017988       -1.8837527299
 O         -0.4759171407        0.4968279904       -0.2101380491
