  62
        -98.94394613
 C         -1.7763041180       -0.4753896203       -0.4051233296
 C         -3.0167661582       -1.0473206271       -0.7754744432
 C         -4.1368601159       -0.7934080236        0.1373451757
 C         -3.9352086384       -0.0749182752        1.2571120555
 C         -4.9711257215        0.2481278417        2.2994848082
 C         -5.8345936105        1.4716847180        1.9631404335
 C         -6.8613236646        1.2576559584        0.8502432885
 H         -7.4561511552        0.3708982609        1.0717744384
 H         -7.5368456793        2.1152765267        0.8687298542
 C         -6.2565055601        1.1366093161       -0.5555035972
 H         -5.2347258246        1.5228728985       -0.5472387083
 H         -6.8268469371        1.7556790352       -1.2516961139
 C         -6.2433094624       -0.2840461250       -1.1198706784
 H         -5.7630351956       -0.2585335751       -2.1013909162
 H         -7.2689517124       -0.6339600811       -1.2567811704
 C         -5.4922182323       -1.3017672259       -0.2513976152
 H         -6.0776761092       -1.5442195359        0.6353856921
 H         -5.3500880713       -2.2136475402       -0.8368668978
 H         -6.3704366141        1.7519420217        2.8729947662
 H         -5.1760813075        2.3015551548        1.6966852127
 H         -5.6130752336       -0.6185397079        2.4602886604
 H         -4.4276329137        0.4540400688        3.2242414909
 O         -2.7218465226        0.4397311708        1.5888733884
 C         -1.6184345498        0.2711413052        0.7630173385
 O         -0.5811010759        0.8180134663        1.1782108955
 O         -3.1771317457       -1.7417017668       -1.8155946258
 C         -0.5816448710       -0.6722090660       -1.3170780017
 C          0.5635220174       -1.3511462663       -0.6059912878
 C          0.3157280594       -2.2882839059        0.3923504276
 C          1.3548312350       -2.9034024603        1.0652740276
 C          2.6697401096       -2.6118393733        0.7471166177
 C          2.9294693981       -1.7015809654       -0.2663932877
 C          1.8838493099       -1.0783337364       -0.9362265825
 H          2.1073374336       -0.3674210223       -1.7171417672
 N          4.2749643508       -1.4057664723       -0.5882838973
 S          5.0766505747       -0.4228914821        0.5095473987
 O          6.4194320003       -0.2691681500       -0.0021422672
 O          4.9495365529       -0.9982964923        1.8228007845
 C          4.2092234147        1.1317777537        0.4071254896
 C          2.9694756985        1.2398098176        1.0045832956
 C          2.2395817952        2.4051575120        0.8295927199
 C          2.7643169618        3.4393033579        0.0697504926
 C          4.0163247745        3.3198183304       -0.5160726370
 C          4.7432067829        2.1514197874       -0.3571048300
 H          5.7149972000        2.0105938619       -0.8024390606
 H          4.4210802930        4.1290652274       -1.1026325962
 H          2.1910330684        4.3430778752       -0.0672841628
 H          1.2560837209        2.4711085951        1.2675402561
 H          2.5785718288        0.4241168319        1.5909966182
 H          4.3838264190       -1.0110661364       -1.5131095456
 H          3.4926426110       -3.0626978857        1.2768732128
 H          1.1389575406       -3.6167390758        1.8465364676
 H         -0.7085543583       -2.5231355183        0.6477934644
 H         -0.9341450510       -1.3440674554       -2.1149876319
 C         -0.1794874986        0.6528500892       -1.9367432384
 C          0.3305344228        0.7193695585       -3.3448142592
 C         -1.0379886428        1.2346556719       -3.0180742805
 H         -1.2072219356        2.3007794275       -3.0268402265
 H         -1.8921800034        0.6546731482       -3.3363695030
 H          1.1027534366        1.4368126550       -3.5797112945
 H          0.4002881408       -0.2047985628       -3.8989515043
 H          0.2409354188        1.3375532867       -1.2083548080
