  62
        -98.94031933
 C         -2.1463126718       -1.2359068346       -0.1063321260
 C         -2.4536153203       -0.0235877472       -0.7728102417
 C         -3.8540845348        0.4222779042       -0.6769212165
 C         -4.7424745224       -0.3155313922        0.0115604337
 C         -6.1810712993        0.0511565332        0.2302024257
 C         -6.3570031772        0.8583004400        1.5241052637
 C         -5.3805831634        2.0266240919        1.6611731231
 H         -4.3654990586        1.6350487582        1.7605053045
 H         -5.6184701905        2.5414180980        2.5945687235
 C         -5.4232588444        3.0292592579        0.4995702153
 H         -5.4185682228        4.0411976474        0.9101387776
 H         -6.3529628717        2.9108999487       -0.0583272377
 C         -4.2388342821        2.9351223582       -0.4642679970
 H         -3.3026273554        2.9613345278        0.0995834144
 H         -4.2552674576        3.8175093525       -1.1097489617
 C         -4.2165877360        1.7020829811       -1.3763175647
 H         -3.4400603409        1.8629546268       -2.1300977029
 H         -5.1767499677        1.6045471282       -1.8873528798
 H         -6.2093190727        0.1874749576        2.3736305254
 H         -7.3818118749        1.2322108837        1.5609367559
 H         -6.7632856959       -0.8689375828        0.3046465686
 H         -6.5378339895        0.6271706577       -0.6213829403
 O         -4.4105539099       -1.4719860175        0.6398798596
 C         -3.1096897194       -1.9461826894        0.6160518780
 O         -2.9374368502       -2.9948727376        1.2684521734
 O         -1.6200114586        0.6598722972       -1.4207533478
 C         -0.7380939147       -1.8082289627       -0.0821739358
 C          0.2507563477       -0.7172591814        0.2450216678
 C          0.2371331165       -0.1660523700        1.5232401465
 C          1.1108730310        0.8478120440        1.8670000287
 C          2.0202872700        1.3322811578        0.9435680969
 C          2.0426822483        0.7882597536       -0.3334878710
 C          1.1703762548       -0.2379576458       -0.6738011683
 H          1.1827312351       -0.6333614751       -1.6773449518
 N          2.9647714369        1.2760263904       -1.2734541719
 S          4.5451499791        1.5101605187       -0.7849936742
 O          4.6602838828        2.7572184385       -0.0707251685
 O          5.3358213517        1.3977551928       -1.9905819707
 C          4.8893645865        0.1492659514        0.3172078747
 C          5.1730567372        0.3895063957        1.6458361225
 C          5.3985297928       -0.6873146159        2.4886745048
 C          5.3325875444       -1.9792118469        1.9912039962
 C          5.0496712110       -2.2045212961        0.6524677575
 C          4.8247912795       -1.1318928389       -0.1944706819
 H          4.6104775128       -1.2717019769       -1.2418124589
 H          5.0007723196       -3.2107167277        0.2680661131
 H          5.5033482077       -2.8165200987        2.6493201417
 H          5.6209382154       -0.5152363692        3.5294694147
 H          5.2134335024        1.4094117384        1.9919824671
 H          2.9096451556        0.8327483452       -2.1779479642
 H          2.6978331659        2.1345856346        1.1868045993
 H          1.0825697731        1.2689351925        2.8606010162
 H         -0.4798823945       -0.5381924452        2.2428163127
 H         -0.7402598450       -2.5209439648        0.7584450479
 C         -0.3634924044       -2.6084250644       -1.3208204508
 C         -1.3935824545       -3.4190626831       -2.0477544409
 C         -0.7876815216       -2.2160826382       -2.7030294517
 H         -0.0929504555       -2.3739863059       -3.5156823037
 H         -1.3901229234       -1.3284261952       -2.8124068656
 H         -1.1170898357       -4.3982941733       -2.4085976843
 H         -2.4148377562       -3.3543765910       -1.7011981354
 H          0.6197362917       -3.0591624007       -1.2235406357
