  62
        -98.94525160
 C          0.8467097057        1.1539420236        0.2863387896
 C          1.6159920911        0.4954272260        1.2785190956
 C          2.4730119314       -0.6020142995        0.8119255395
 C          2.4427478754       -0.9504972111       -0.4870207848
 C          3.3500670976       -1.9636621868       -1.1218181344
 C          4.6329108382       -1.3007908858       -1.6448237708
 C          5.3240169412       -0.3942280117       -0.6262902860
 H          6.2311962246       -0.0086454331       -1.0964926300
 H          4.6819994325        0.4647667803       -0.4178521824
 C          5.6881155500       -1.0853455220        0.6952488045
 H          5.6773413081       -2.1678705183        0.5633019064
 H          6.7065219035       -0.8028030502        0.9702141341
 C          4.7889629015       -0.7109047180        1.8750368731
 H          4.7298291291        0.3773264141        1.9610397992
 H          5.2542520296       -1.0848745661        2.7910307396
 C          3.3602338432       -1.2675709961        1.8256564892
 H          2.8969581929       -1.0809044266        2.7992395501
 H          3.3918908456       -2.3468219851        1.6629186999
 H          4.3790810644       -0.6987277934       -2.5201662771
 H          5.3227320574       -2.0856233558       -1.9602773275
 H          3.6000264969       -2.7319267401       -0.3927070585
 H          2.8260712282       -2.4226935819       -1.9604451170
 O          1.6120419979       -0.3691948115       -1.3860234466
 C          0.7849956456        0.6883218877       -1.0282958184
 O          0.0682423920        1.1004245744       -1.9570697271
 O          1.5975622701        0.8202451607        2.4968022650
 C          0.0261255277        2.3565108346        0.7147070168
 C         -1.3738929818        2.2651772792        0.1662921562
 C         -1.9237115420        3.1923526413       -0.7089896183
 C         -3.2161630796        3.0308428499       -1.1756259382
 C         -3.9809934117        1.9470465260       -0.7869618217
 C         -3.4396586207        1.0147053836        0.0916554921
 C         -2.1496195975        1.1837638240        0.5661549256
 H         -1.7386201970        0.4613305788        1.2572465280
 N         -4.1937720026       -0.0896498749        0.5122220691
 S         -3.4662660101       -1.5034945068        0.9944756252
 O         -4.5181305717       -2.4940691650        0.8907337982
 O         -2.8901486122       -1.3492991276        2.3077033351
 C         -2.1924861213       -1.8962822574       -0.1917807463
 C         -2.4058149908       -1.6641899503       -1.5352771860
 C         -1.4445456160       -2.0707658218       -2.4458899697
 C         -0.3023342007       -2.7173966181       -2.0032935732
 C         -0.1007812549       -2.9424378070       -0.6508476279
 C         -1.0503264648       -2.5215936021        0.2651980070
 H         -0.9242805354       -2.6620884230        1.3275245281
 H          0.7918141201       -3.4384852901       -0.3043516873
 H          0.4373412965       -3.0420830554       -2.7179353354
 H         -1.5886565485       -1.8802689326       -3.4969946339
 H         -3.3050706831       -1.1677626120       -1.8614207505
 H         -5.0623295011       -0.2433580319        0.0227936639
 H         -4.9864566014        1.8182898858       -1.1572853020
 H         -3.6306833107        3.7546241314       -1.8607102012
 H         -1.3330394059        4.0281279835       -1.0453327840
 H         -0.0384679425        2.2678830822        1.8126778198
 C          0.7003147938        3.6903286242        0.4250095790
 C          2.1941227533        3.8106720995        0.4071452504
 C          1.4153122095        3.9640530299       -0.8629490880
 H          1.3327854271        4.9504877912       -1.2952678965
 H          1.4544819440        3.1696199779       -1.5916901619
 H          2.6441239202        4.6876177539        0.8478455636
 H          2.7699238177        2.9076160718        0.5497024838
 H          0.1594589196        4.5207728440        0.8685573130
