  62
        -98.94107769
 C         -2.0602984743       -1.4097906087        0.2879660481
 C         -1.7445409455       -0.4195197653       -0.6774260604
 C         -2.7757771613        0.6089382755       -0.9040733869
 C         -3.8783768547        0.6285638304       -0.1350432158
 C         -4.9586376768        1.6673176932       -0.2036924285
 C         -4.6467835781        2.8512275830        0.7230974106
 C         -3.2360044028        3.4145281438        0.5517376009
 H         -3.1379667303        4.2607498745        1.2348346299
 H         -2.5118987447        2.6599356247        0.8673446864
 C         -2.9078150941        3.8683390809       -0.8775788036
 H         -2.4177122617        4.8432531939       -0.8347011615
 H         -3.8299002293        3.9953016145       -1.4460723089
 C         -1.9687252947        2.9324700783       -1.6396374038
 H         -1.0664011395        2.7562886647       -1.0511471651
 H         -1.6605553154        3.4353796726       -2.5603710127
 C         -2.5531863880        1.5724845398       -2.0378659108
 H         -3.4829899887        1.7219897423       -2.5915225474
 H         -1.8319040641        1.0913830694       -2.7056038465
 H         -4.7614923471        2.5200145272        1.7578052422
 H         -5.3799393759        3.6377194420        0.5353500094
 H         -5.8979783819        1.2087065610        0.1097741413
 H         -5.0600473107        2.0136089217       -1.2306639082
 O         -4.1031588681       -0.2800264210        0.8468391897
 C         -3.2266225870       -1.3285128961        1.0599565387
 O         -3.5857109866       -2.1110656308        1.9617344359
 O         -0.6766330297       -0.3733143525       -1.3416845623
 C         -1.1768362422       -2.6135732416        0.5836077697
 C          0.2415832126       -2.1936377962        0.8709017803
 C          0.6325466070       -1.8828776869        2.1690697983
 C          1.9254873950       -1.4686315849        2.4362303244
 C          2.8381940583       -1.3096867412        1.4081927454
 C          2.4409604717       -1.5794957971        0.1045933778
 C          1.1657847024       -2.0635254964       -0.1526326174
 H          0.8738716589       -2.2856548625       -1.1666677311
 N          3.3200786156       -1.3267168703       -0.9608217639
 S          4.2579210841        0.0556477163       -0.8881127665
 O          4.4062344556        0.4927228066       -2.2597843378
 O          5.4925987498       -0.2521443136       -0.2049744822
 C          3.3734174672        1.2841156414        0.0680927800
 C          2.0112640869        1.4604690187       -0.0779112254
 C          1.3833332634        2.4209771872        0.7002638127
 C          2.1133434358        3.1985284151        1.5846054488
 C          3.4820487308        3.0194070664        1.7057087858
 C          4.1159186527        2.0500147096        0.9462458824
 H          5.1743613879        1.8606812067        1.0242523180
 H          4.0533926287        3.6231912273        2.3921504835
 H          1.6102273660        3.9422124967        2.1822150835
 H          0.3152853955        2.5494238850        0.6169093148
 H          1.4378266198        0.8516112035       -0.7606816689
 H          2.8819393940       -1.4151586192       -1.8665266160
 H          3.8455558527       -0.9723803962        1.5946772874
 H          2.2225733128       -1.2528494719        3.4510113118
 H         -0.0893885687       -1.9700143289        2.9689023654
 H         -1.5941009663       -3.0450693041        1.5063061540
 C         -1.2404851512       -3.7091927424       -0.4738409624
 C         -2.5619568396       -4.1443149817       -1.0319329892
 C         -1.5648530910       -3.4580860523       -1.9142064421
 H         -1.0504249645       -4.0470948624       -2.6597941444
 H         -1.7672695964       -2.4456804149       -2.2255739797
 H         -2.7428192536       -5.1987530546       -1.1753940533
 H         -3.4353563968       -3.5884138220       -0.7219941530
 H         -0.5191924492       -4.4959921467       -0.2736983081
