  62
        -98.94778034
 C          1.3485868615        1.3564782207        0.6543967639
 C          2.2311259833        0.9439824792       -0.3722771829
 C          3.0722641884       -0.2213640995       -0.0656409220
 C          2.9519496358       -0.8280127865        1.1287663600
 C          3.7403980355       -2.0281503582        1.5661998711
 C          3.0119987259       -3.3397987650        1.2456803982
 C          2.5024694853       -3.4369679414       -0.1925788268
 H          2.0614887875       -4.4298924552       -0.3114477283
 H          1.6913002463       -2.7192599197       -0.3395755141
 C          3.5784329736       -3.2275234744       -1.2670208694
 H          4.5687235637       -3.3834387193       -0.8363556850
 H          3.4402618480       -3.9810791532       -2.0454639183
 C          3.5325151257       -1.8632176377       -1.9579361962
 H          4.1515527911       -1.9166091010       -2.8579099478
 H          2.5073019843       -1.6529952648       -2.2752436999
 C          4.0336718469       -0.6753787765       -1.1268057687
 H          5.0075436379       -0.9135097858       -0.6934421420
 H          4.1557774241        0.1760912851       -1.8029116982
 H          2.1532058915       -3.4350582124        1.9142973636
 H          3.6942029270       -4.1683370281        1.4480618370
 H          4.7112183537       -2.0123823696        1.0741420370
 H          3.8900550760       -1.9629285644        2.6457173904
 O          2.0731963319       -0.4205428690        2.0796173877
 C          1.2364702914        0.6629384640        1.8577969620
 O          0.4515756838        0.9055577247        2.7979119368
 H         -0.8128347259        0.2669024722       -0.0828686215
 C         -1.0245420601        0.9852403254       -0.8583361315
 C         -0.4574391946        2.2497002887       -0.7738217533
 C         -0.7255735638        3.1662123432       -1.7812861744
 C         -1.5139687322        2.8006807970       -2.8597790774
 C         -2.0469445854        1.5287112442       -2.9575589347
 C         -1.7955369722        0.6080535042       -1.9443197968
 N         -2.3176356695       -0.6835871385       -2.0028759421
 S         -2.0970358750       -1.8637482348       -0.8583830611
 O         -0.7063371124       -2.0328912328       -0.5138894380
 O         -2.7548919020       -3.0200018385       -1.4292977658
 C         -3.0406570044       -1.2856909360        0.5376829317
 C         -2.4227116993       -0.9701681408        1.7296629929
 C         -3.1922320840       -0.4943806802        2.7802256215
 C         -4.5613212989       -0.3488054719        2.6233018857
 C         -5.1709302766       -0.6805254435        1.4220691507
 C         -4.4056197750       -1.1510436655        0.3684835284
 H         -4.8412449772       -1.4264925957       -0.5777080918
 H         -6.2368571488       -0.5698873015        1.3047000373
 H         -5.1548614481        0.0243530781        3.4429451056
 H         -2.7068000886       -0.2321460284        3.7069216829
 H         -1.3536269529       -1.0848534368        1.8277770773
 H         -2.8279995161       -0.9543224516       -2.8262125461
 H         -2.6426660818        1.2432139043       -3.8106877792
 H         -1.7078340115        3.5168214713       -3.6440181946
 H         -0.3061433817        4.1576868422       -1.7328416051
 C          0.4201972714        2.5360413284        0.4215809767
 H         -0.2232831879        2.5996716129        1.3117405308
 C          1.2132282774        3.8199615990        0.2974018511
 C          0.6068138836        5.1257334801        0.7127995883
 C          1.6851405089        4.5017386637        1.5452587621
 H          2.6657983548        4.9533043229        1.5470882433
 H          1.4108350128        4.0516321605        2.4884911987
 H          0.8494226583        6.0108648926        0.1443040444
 H         -0.4017532422        5.1092941940        1.0972102856
 H          1.8847045585        3.8119109853       -0.5533912487
 O          2.3217924709        1.5252065744       -1.4857784717
