  62
        -98.93763321
 C         -1.7097084100       -0.3366682287       -0.3692283752
 C         -2.9254205872       -0.7549058874       -0.9537875480
 C         -4.1570487348       -0.5171214101       -0.1757855287
 C         -4.0536877422        0.0587195389        1.0367415501
 C         -5.1614890948        0.4315229462        1.9855732275
 C         -5.9103543125        1.7020925237        1.5505966115
 C         -6.2370498701        1.7788886648        0.0613841835
 H         -6.6574499015        2.7686220201       -0.1357836241
 H         -5.3123267721        1.7000516142       -0.5131340566
 C         -7.2367774128        0.7397848108       -0.4404892984
 H         -8.1767106987        0.8546753874        0.1041402697
 H         -7.4340309203        0.9608088025       -1.4926556373
 C         -6.7929111577       -0.7206919853       -0.3373700382
 H         -7.4888049343       -1.3150280321       -0.9369599252
 H         -6.8777779436       -1.0844931946        0.6830975618
 C         -5.3975743156       -1.0047862094       -0.8850278362
 H         -5.2759659941       -2.0909868985       -0.9791103355
 H         -5.3293180724       -0.6194650779       -1.9088163015
 H         -6.8307543857        1.7765109236        2.1321620335
 H         -5.2843186734        2.5629258509        1.7973848225
 H         -5.8472437540       -0.4020647443        2.1043647171
 H         -4.6940476722        0.6184006811        2.9548187013
 O         -2.8546101409        0.4355838104        1.5659364900
 C         -1.6607429796        0.2528659734        0.8933798756
 O         -0.6533644950        0.6464622423        1.5101552947
 H          2.2248439826       -0.1536969487       -0.4146702517
 C          1.8211367780       -1.0779513989       -0.0390701827
 C          0.5109762223       -1.4303838886       -0.3178069979
 C          0.0271175806       -2.6414816366        0.1721124044
 C          0.8305456890       -3.4661857415        0.9339049035
 C          2.1366925595       -3.1060270564        1.2175959200
 C          2.6324867607       -1.9046426923        0.7273841709
 N          3.9382935739       -1.4985357425        1.0262838901
 S          4.8372004682       -0.5831258281       -0.0388565408
 O          4.6213491033       -0.9879368627       -1.4085344892
 O          6.1962946793       -0.7025950340        0.4453257650
 C          4.2799705903        1.0903973821        0.2023690486
 C          3.9641412144        1.5201959354        1.4755224216
 C          3.5567509146        2.8322055544        1.6558459675
 C          3.4784090803        3.6889594973        0.5686294569
 C          3.8057912179        3.2440087609       -0.7027825898
 C          4.2122839794        1.9325202209       -0.8899823921
 H          4.4677996972        1.5402863498       -1.8618327386
 H          3.7433624245        3.9122462534       -1.5470776709
 H          3.1575262144        4.7086871167        0.7126298417
 H          3.2957855379        3.1802433360        2.6423310340
 H          4.0271693163        0.8280036343        2.2984200438
 H          4.4978130161       -2.1616084382        1.5408918804
 H          2.7644892226       -3.7468270879        1.8178499503
 H          0.4396738936       -4.3996648452        1.3103629278
 H         -0.9935957432       -2.9230415867       -0.0489326384
 C         -0.4118171119       -0.5524786408       -1.1256367779
 H         -0.6911800497       -1.0985372781       -2.0391488081
 C          0.1973542723        0.7768103915       -1.5181359043
 C          1.0924515867        0.8724213456       -2.7160750658
 C         -0.2861789322        1.4574778846       -2.7621533207
 H         -0.3911753428        2.5318201518       -2.7543092126
 H         -1.0403197367        0.9487657400       -3.3448302790
 H          1.9346687701        1.5460564756       -2.6748432293
 H          1.2839638692       -0.0334417072       -3.2713996942
 H          0.4221159685        1.4018523290       -0.6607243465
 O         -2.9885225590       -1.3078319401       -2.0861393509
