  62
        -98.94362257
 C         -1.9765208973       -1.3462696694       -0.0340680120
 C         -1.9133530251       -0.0648265364       -0.6328653554
 C         -3.2033082381        0.6149333086       -0.8216599798
 C         -4.3369515664       -0.0000597652       -0.4382974470
 C         -5.7076500093        0.6064785464       -0.5118870861
 C         -6.0566340537        1.3454830733        0.7878805193
 C         -4.9670514784        2.3053672948        1.2664724494
 H         -5.3358752246        2.7891319453        2.1736480839
 H         -4.0819317780        1.7299619335        1.5478656720
 C         -4.5685812583        3.3767223599        0.2417683172
 H         -5.3437115183        3.4663987898       -0.5202594127
 H         -4.5020290232        4.3404882469        0.7510740254
 C         -3.2180088686        3.1357840477       -0.4350634307
 H         -2.9382916055        4.0481350885       -0.9686325808
 H         -2.4536618932        2.9549326459        0.3253094855
 C         -3.1772813037        1.9821228078       -1.4448802671
 H         -2.2281883446        2.0476851744       -1.9844295925
 H         -3.9902680138        2.0946653376       -2.1648527171
 H         -6.9862930226        1.8961765127        0.6332464919
 H         -6.2278421620        0.6044060937        1.5722885830
 H         -6.4314315753       -0.1951056313       -0.6686087565
 H         -5.7521007147        1.2926753290       -1.3553382254
 O         -4.3579963989       -1.2397734922        0.1154450090
 C         -3.1822965294       -1.9383539377        0.3394753086
 O         -3.3393070371       -3.0568080827        0.8708740502
 O         -0.8405609982        0.4849522514       -0.9886029552
 C         -0.6996924062       -2.1272038942        0.2128973974
 C          0.2575149082       -1.3387566081        1.0743334214
 C         -0.2336177011       -0.5715257803        2.1268053180
 C          0.6174943785        0.1677372933        2.9261920100
 C          1.9837522799        0.1466473628        2.7064108039
 C          2.4873445196       -0.6299678098        1.6729148685
 C          1.6287399909       -1.3669539363        0.8654548708
 H          2.0394326954       -1.9618789051        0.0640683054
 N          3.8828318185       -0.6575572108        1.4565582340
 S          4.5901390206        0.7425267060        0.8649929092
 O          6.0054679498        0.4625361717        0.7816713843
 O          4.2020511320        1.8486115554        1.7009168095
 C          3.9174239797        0.9231246263       -0.7769146267
 C          4.7075110710        0.6118945752       -1.8665559559
 C          4.1548328651        0.6778873584       -3.1351182670
 C          2.8223064569        1.0311201902       -3.2899587989
 C          2.0408711961        1.3350764184       -2.1859145341
 C          2.5927850792        1.2864826999       -0.9156923302
 H          2.0009880634        1.5176775843       -0.0449812055
 H          0.9959653642        1.5793801913       -2.2885408301
 H          2.3875993951        1.0679676711       -4.2767339768
 H          4.7595187071        0.4452229036       -3.9971024075
 H          5.7347363730        0.3313482188       -1.6975657868
 H          4.1826611636       -1.4383628174        0.8884134763
 H          2.6608957926        0.7309870803        3.3072995613
 H          0.2145639878        0.7648055278        3.7307063133
 H         -1.3002521579       -0.5540593626        2.3067924443
 H         -0.9970022866       -3.0273456258        0.7715086961
 C         -0.0946774216       -2.5521837029       -1.1109192410
 C          0.6422025418       -3.8516515400       -1.2315786496
 C         -0.7139427080       -3.6984972006       -1.8503240120
 H         -0.7895196954       -3.6399473789       -2.9256068178
 H         -1.5513189518       -4.1943342513       -1.3806029040
 H          1.4984818905       -3.9008935658       -1.8878079896
 H          0.7259490175       -4.4661625795       -0.3476355186
 H          0.2538536312       -1.7084189672       -1.6959194188
