  62
        -98.94450288
 C         -1.9410046508       -1.0872430503       -0.1795481916
 C         -2.4420449503        0.0477494238       -0.8612402522
 C         -3.8962576353        0.2397656848       -0.7876454280
 C         -4.6592785953       -0.6566027954       -0.1361245498
 C         -6.1565252249       -0.6083702969        0.0054519539
 C         -6.6448200707        0.2756383650        1.1613154169
 C         -6.5011523925        1.7812234329        0.9349717393
 H         -6.9554655603        2.0491266291       -0.0194124528
 H         -7.0744704788        2.2790051374        1.7195957395
 C         -5.0546935988        2.2936844889        0.9803900188
 H         -5.0065968739        3.1959260402        1.5941863729
 H         -4.4178141053        1.5468656090        1.4598935015
 C         -4.4621193263        2.6434483415       -0.3848572542
 H         -3.4243529683        2.9547924821       -0.2389664575
 H         -5.0088498974        3.4843231709       -0.8174907968
 C         -4.4701144918        1.4855447790       -1.3915626072
 H         -5.4828377143        1.3056200270       -1.7517635619
 H         -3.8399810120        1.7642302736       -2.2398322060
 H         -7.7028514670        0.0527816826        1.3171642939
 H         -6.1080610076       -0.0090419420        2.0691866816
 H         -6.6024898043       -0.2672379160       -0.9291085403
 H         -6.4841635394       -1.6329989836        0.1938748085
 O         -4.1399978620       -1.7547420128        0.4751735692
 C         -2.7733843403       -1.9828693363        0.4912360216
 O         -2.4283865306       -3.0004948288        1.1256755621
 O         -1.7187086586        0.8585522772       -1.4960524538
 C         -0.4480286800       -1.3637837722       -0.1671908770
 C          0.2906444904       -0.1611477649        0.3672546840
 C         -0.1290694200        0.3983712315        1.5723018301
 C          0.4958535007        1.5151873718        2.0898502912
 C          1.5658005885        2.0901122507        1.4257578624
 C          2.0011991052        1.5338776149        0.2300962657
 C          1.3686832283        0.4106753379       -0.2887274031
 H          1.7182244021        0.0149508413       -1.2269431179
 N          3.0776733237        2.1031704455       -0.4692799654
 S          4.2777068087        1.1283808119       -1.1034879202
 O          5.3836064111        2.0281678429       -1.3466395028
 O          3.7870867132        0.4003742497       -2.2448429095
 C          4.6819293760        0.0103465314        0.2254906095
 C          5.4511504687        0.4900579490        1.2679820207
 C          5.7204767946       -0.3427788989        2.3413714894
 C          5.2109177041       -1.6325258760        2.3582472508
 C          4.4422050168       -2.0991950641        1.3034870419
 C          4.1725863966       -1.2717865121        0.2245490402
 H          3.5830244520       -1.5998242196       -0.6154480075
 H          4.0490159686       -3.1033504124        1.3171055625
 H          5.4161803278       -2.2795240872        3.1965026709
 H          6.3228105055        0.0147748821        3.1608761153
 H          5.8372942444        1.4949462477        1.2119305527
 H          3.4736189559        2.9212078148       -0.0298545198
 H          2.0502021629        2.9690475236        1.8231439513
 H          0.1498955209        1.9430404258        3.0187442649
 H         -0.9665052214       -0.0501563541        2.0899776090
 H         -0.2996581260       -2.1993639201        0.5325459467
 C          0.0093637325       -1.7964001234       -1.5443923491
 C          1.1484782843       -2.7574916494       -1.6955485419
 C         -0.2522019512       -3.2032327250       -1.9879417654
 H         -0.5389205420       -3.3752153726       -3.0145548488
 H         -0.7373936882       -3.8620269958       -1.2821891778
 H          1.8317905323       -2.6219139585       -2.5212022183
 H          1.6090027768       -3.1286144121       -0.7922120151
 H         -0.1019615349       -1.0146609237       -2.2875919633
