  62
        -98.94528998
 C         -1.9523422004       -1.4981990198       -0.1260621408
 C         -1.6669002002       -0.2226928598       -0.6714375408
 C         -2.8032426100        0.7081227604       -0.7354981507
 C         -4.0201528601        0.2935812906       -0.3388208307
 C         -5.2492126800        1.1543920508       -0.3053428206
 C         -5.4143361798        1.8300029308        1.0632533694
 C         -4.1451000597        2.5148342705        1.5705495894
 H         -3.3845906998        1.7556826604        1.7678897894
 H         -4.3884779596        2.9809849605        2.5279191995
 C         -3.5695552695        3.5723182105        0.6181767895
 H         -3.2988873294        4.4554078504        1.2009528895
 H         -4.3327735095        3.8792679506       -0.0978474105
 C         -2.3126026896        3.1324478303       -0.1355570806
 H         -1.5846107297        2.7285197501        0.5726127594
 H         -1.8698779695        4.0185959602       -0.5978326106
 C         -2.5268706098        2.0944106404       -1.2442193306
 H         -1.5967607899        2.0186853802       -1.8142947507
 H         -3.3204516498        2.4283776805       -1.9154351106
 H         -5.7076016399        1.0700818208        1.7914684494
 H         -6.2217430697        2.5612336609        0.9929207095
 H         -5.1816313199        1.9071186208       -1.0882181906
 H         -6.1183558201        0.5224228609       -0.4956750806
 O         -4.2627987703       -0.9578109894        0.1305319193
 C         -3.2328872904       -1.8735656696        0.2765005592
 O         -3.5788684706       -2.9677915095        0.7669782092
 H          1.8551101695       -2.2864233104       -0.5876828710
 C          1.5998832196       -1.8184022604        0.3501009191
 C          0.2954790896       -1.8603579202        0.8137766291
 C          0.0047554897       -1.2509744502        2.0318605191
 C          0.9873092098       -0.5989952204        2.7511749091
 C          2.2854978398       -0.5413396406        2.2738616591
 C          2.5882778797       -1.1564669806        1.0678063591
 N          3.9068748897       -1.1035482808        0.5728933590
 S          4.5824379999        0.4138600391        0.3497753391
 O          5.7298741199        0.1906457489       -0.5014123910
 O          4.8527696701        1.0053335590        1.6359537891
 C          3.3462325701        1.3603377193       -0.5173577508
 C          3.2257390100        1.1847316794       -1.8811295808
 C          2.2429674901        1.8825193096       -2.5622211108
 C          1.3984977903        2.7353102997       -1.8698529707
 C          1.5292398203        2.8967784397       -0.5004645007
 C          2.5095578102        2.2007893495        0.1870281692
 H          2.6433204403        2.3000191294        1.2519687492
 H          0.8661240605        3.5577403897        0.0342364593
 H          0.6319435503        3.2768224599       -2.4017608707
 H          2.1334532700        1.7552495997       -3.6274786008
 H          3.9089306099        0.5201314093       -2.3860415009
 H          4.0371194596       -1.6538737408       -0.2644916210
 H          3.0623265199       -0.0223261208        2.8115591291
 H          0.7417700699       -0.1264815904        3.6905891892
 H         -1.0120116003       -1.2848564000        2.4006019092
 C         -0.8281130806       -2.5052189500        0.0401135891
 H         -1.2373459607       -3.3306501899        0.6399645091
 C         -0.4111257607       -3.0446471300       -1.3122222609
 C          0.2128283391       -4.4027119401       -1.4245073610
 C         -1.1872833009       -4.1779803998       -1.9094406409
 H         -1.3712011409       -4.1732936597       -2.9733793009
 H         -2.0048399110       -4.5787820197       -1.3280547409
 H          0.3493965190       -4.9674620201       -0.5146175310
 H          0.9886198190       -4.5574676602       -2.1595222910
 H         -0.0709150106       -2.2648107900       -1.9844306809
 O         -0.5279662502        0.1209716500       -1.0783610608
