  62
        -98.94500734
 C         -2.4466668080       -1.2035681033       -0.0947384039
 C         -3.2708292548       -0.5621545222        0.8682923981
 C         -3.9863351428        0.6359410908        0.4205615457
 C         -3.8470458865        1.0574952427       -0.8490080963
 C         -4.5180550194        2.2546594300       -1.4652385899
 C         -3.7892836098        3.5794409338       -1.2009392175
 C         -3.9052411160        4.1115851966        0.2280726446
 H         -3.5438231202        5.1417273541        0.2152777936
 H         -4.9553534161        4.1377491887        0.5208100653
 C         -3.0981221160        3.3200592973        1.2668319118
 H         -2.3470334111        2.7093848031        0.7587480149
 H         -2.5554963524        4.0150013354        1.9118127496
 C         -3.9391982963        2.4226832186        2.1751902107
 H         -3.2619666560        1.8805030063        2.8398686662
 H         -4.5958421436        3.0400872471        2.7920446230
 C         -4.7968363430        1.3922976876        1.4292344390
 H         -5.6413295761        1.8835960152        0.9467175634
 H         -5.1775562040        0.6719465114        2.1572357259
 H         -2.7342883670        3.4560928045       -1.4588780550
 H         -4.2117680181        4.3246706581       -1.8790043180
 H         -5.5452481009        2.3249377158       -1.1063571315
 H         -4.5361891529        2.0807354286       -2.5432978926
 O         -3.0669506701        0.4055267843       -1.7492457547
 C         -2.3301922414       -0.7165039874       -1.3964020210
 O         -1.6439409684       -1.1675978925       -2.3370072489
 O         -3.4065036419       -0.9804944104        2.0482852561
 C         -1.6651363022       -2.4194037014        0.3802487780
 C         -0.2441077126       -2.0074922117        0.6816416092
 C          0.1974611471       -1.8831618506        1.9941328654
 C          1.4787644759       -1.4377630440        2.2684193143
 C          2.3411082672       -1.0965023187        1.2416135271
 C          1.9051269679       -1.2081681094       -0.0718521229
 C          0.6297832918       -1.6770981187       -0.3448698954
 H          0.2931300260       -1.7380051168       -1.3691106986
 N          2.7651245967       -0.8222380474       -1.1240625479
 S          3.1729057047        0.8127678826       -1.1321084229
 O          2.1388002040        1.6192849442       -0.5223203217
 O          3.5066899551        1.1238231104       -2.5052407692
 C          4.6566075086        0.8747509752       -0.1491381900
 C          4.7040395699        1.6668956514        0.9810634040
 C          5.8727436265        1.7010024687        1.7261998032
 C          6.9663442579        0.9463754082        1.3299899363
 C          6.9027453339        0.1571308764        0.1910059132
 C          5.7383908271        0.1198410836       -0.5592916397
 H          5.6466293441       -0.4756244881       -1.4522271628
 H          7.7552116006       -0.4280749426       -0.1139051640
 H          7.8736816599        0.9737385275        1.9124530333
 H          5.9238451784        2.3141965430        2.6115570657
 H          3.8257996328        2.2303686421        1.2531315659
 H          2.3922978818       -1.0684461783       -2.0315672600
 H          3.3364059547       -0.7373222694        1.4473241123
 H          1.8071860394       -1.3480782939        3.2926090318
 H         -0.4819153736       -2.1175963427        2.8008536973
 H         -2.1386288418       -2.7095702128        1.3277072462
 C         -1.7349791141       -3.5964407438       -0.5705343743
 C         -1.4346789749       -4.9681764151       -0.0476164841
 C         -2.8394117754       -4.5965400002       -0.4139723921
 H         -3.2739801299       -5.0252477189       -1.3044784486
 H         -3.5500231393       -4.4351702018        0.3834194889
 H         -0.9017455996       -5.6566235002       -0.6851125938
 H         -1.1927496472       -5.0601524374        1.0002879306
 H         -1.4234503486       -3.3606561685       -1.5795868004
