  62
        -98.93938093
 C         -2.5905645799       -1.2028022701        0.1469733804
 C         -2.8457077198       -0.2834594503       -0.8987104498
 C         -4.2442623798        0.1473383198       -1.0412274499
 C         -5.1774933798       -0.3537642999       -0.2112632698
 C         -6.6277348098        0.0327662003       -0.2164764799
 C         -6.8949201896        1.2033559805        0.7398141799
 C         -5.9316263695        2.3770496804        0.5623790896
 H         -6.2345586294        3.1559328406        1.2656095794
 H         -4.9258224995        2.0604633803        0.8485307097
 C         -5.8931607294        2.9573416500       -0.8582314205
 H         -5.9192713793        4.0470265200       -0.7916659808
 H         -6.7806563195        2.6452920400       -1.4099475205
 C         -4.6428279895        2.5901415197       -1.6598858804
 H         -4.6125296394        3.2233695795       -2.5506176206
 H         -3.7496935895        2.8133941997       -1.0702878605
 C         -4.5560735596        1.1331432796       -2.1317549101
 H         -5.4774051097        0.8583045096       -2.6493552500
 H         -3.7272852097        1.0637704893       -2.8423837501
 H         -6.8059074897        0.8396470607        1.7661625000
 H         -7.9202153396        1.5458126106        0.5886442398
 H         -6.9227278697        0.3020950201       -1.2286887999
 H         -7.2138994199       -0.8292826596        0.1064715603
 O         -4.8946916099       -1.2478063597        0.7709908604
 C         -3.5975087000       -1.6849432498        0.9821069206
 O         -3.4710968601       -2.4889926896        1.9284937107
 H          1.3694502501       -1.3063037708       -0.5773488395
 C          1.0376540202       -0.5115278306        0.0726985203
 C         -0.2329731199       -0.5563160203        0.6245582803
 C         -0.6227195297        0.4757852499        1.4736209500
 C          0.2250739804        1.5342111599        1.7377638898
 C          1.4852480604        1.5852556196        1.1685929098
 C          1.8921883703        0.5530967894        0.3355148100
 N          3.1715131003        0.5970528691       -0.2459921000
 S          4.4510405103        1.0666559692        0.7538859999
 O          4.3208066803        0.4364814095        2.0484818801
 O          4.5243654705        2.5063103392        0.7596420496
 C          5.8447527103        0.3904496888       -0.1277515199
 C          6.4390461604        1.1405358185       -1.1245963101
 C          7.5058998203        0.5985991182       -1.8238424000
 C          7.9569857001       -0.6766793718       -1.5175226097
 C          7.3507981200       -1.4171165615       -0.5136062595
 C          6.2830153001       -0.8817161212        0.1890897504
 H          5.7894025000       -1.4171704309        0.9843874705
 H          7.7057415099       -2.4069903914       -0.2758132293
 H          8.7882294001       -1.0956509920       -2.0623466996
 H          7.9816518804        1.1716108580       -2.6032905001
 H          6.0600647505        2.1297090985       -1.3217935203
 H          3.3909369102       -0.2486639310       -0.7544473898
 H          2.1591023905        2.4033081196        1.3675418296
 H         -0.0965467995        2.3291708301        2.3944819896
 H         -1.6056580397        0.4382706602        1.9245769701
 C         -1.1790815700       -1.7074625202        0.3795224506
 H         -1.2196527001       -2.3108732300        1.2988864907
 C         -0.7609078101       -2.6016327906       -0.7704826392
 C          0.1786369198       -3.7465733906       -0.5417318390
 C         -1.2723649603       -4.0092107205       -0.8084430989
 H         -1.5560401103       -4.4298931707       -1.7613997688
 H         -1.8968299703       -4.3293036002        0.0131507712
 H          0.5437494698       -3.9017133704        0.4624764311
 H          0.8903298497       -3.9933155309       -1.3154668989
 H         -0.7008284300       -2.0651722908       -1.7106711694
 O         -1.9551002498        0.1519720394       -1.6741233899
