  62
        -98.93813914
 C         -1.9374325083       -0.7392832771        0.3390988011
 C         -2.3396521509        0.4431063091       -0.3234865037
 C         -3.7153924142        0.9046268893       -0.0566774611
 C         -4.4850462351        0.2130068301        0.8011761536
 C         -5.9175484938        0.4818882570        1.1708069679
 C         -6.8710380354       -0.3322787069        0.2798058970
 C         -7.2579474263        0.3431491615       -1.0352665293
 H         -7.8213220770       -0.3862968108       -1.6217555182
 H         -7.9266396517        1.1806131848       -0.8252738460
 C         -6.0865472490        0.8528564369       -1.8789303515
 H         -6.4373646671        0.9617636993       -2.9070658309
 H         -5.2877184040        0.1091164442       -1.8871691914
 C         -5.5376819633        2.2038961975       -1.3963477626
 H         -6.2382730129        2.6389417495       -0.6838027958
 H         -5.4864285845        2.8954024745       -2.2400374361
 C         -4.1329468106        2.1578410459       -0.7766656783
 H         -3.3833592307        2.2868808881       -1.5639162714
 H         -4.0150961167        3.0070513877       -0.0950436768
 H         -6.3965429908       -1.2951662483        0.0739645392
 H         -7.7872654213       -0.5329474807        0.8387659975
 H         -6.0391817444        0.1499362142        2.2040367748
 H         -6.1377943074        1.5438335433        1.1163529620
 O         -4.0477839244       -0.9085604787        1.4373429191
 C         -2.7777539163       -1.4093385831        1.2298508031
 O         -2.5143321860       -2.4377997513        1.8843628357
 H          1.2563193353        0.3269205525       -1.1668482401
 C          1.3043419535        0.4221030772       -0.0937358678
 C          0.4619235231       -0.3322906457        0.7064209670
 C          0.5376766095       -0.1735797456        2.0877507723
 C          1.4321228477        0.7164036870        2.6513655178
 C          2.2708481837        1.4707842191        1.8481457653
 C          2.1978512548        1.3230315079        0.4708822887
 N          3.0714691766        2.0725728411       -0.3494272435
 S          4.6907527185        1.6642836483       -0.2028925585
 O          5.1733365069        2.1076008777        1.0797796757
 O          5.3462063495        2.2228583798       -1.3634282957
 C          4.6936831867       -0.1178218763       -0.2791453983
 C          4.7100735526       -0.7264839223       -1.5183476075
 C          4.6163436828       -2.1067226589       -1.5886699067
 C          4.4933907355       -2.8496068077       -0.4243968921
 C          4.4756754447       -2.2231703777        0.8121065610
 C          4.5759428522       -0.8432778120        0.8892452931
 H          4.5690629691       -0.3199559085        1.8311234293
 H          4.3785092143       -2.8030238040        1.7159332804
 H          4.4116572660       -3.9237458918       -0.4817244622
 H          4.6330754787       -2.5988506702       -2.5478057332
 H          4.8095049149       -0.1123380410       -2.3990945964
 H          2.8054579898        2.0519124522       -1.3242041121
 H          2.9853837081        2.1612183645        2.2665127376
 H          1.4782728908        0.8256093515        3.7244125635
 H         -0.1213688329       -0.7599658017        2.7136342009
 C         -0.5414761711       -1.3075041437        0.1423124991
 H         -0.5023695837       -2.2199501276        0.7526277226
 C         -0.2873647196       -1.6764011832       -1.3040325082
 C          0.8812800230       -2.5515108198       -1.6428117462
 C         -0.5138696093       -3.0878402541       -1.7507452236
 H         -0.9282824441       -3.2558660894       -2.7335336943
 H         -0.8496829355       -3.7980037623       -1.0093443072
 H          1.4985373248       -2.8935773478       -0.8259943212
 H          1.4277013090       -2.3542692510       -2.5524282327
 H         -0.5525953988       -0.8874444155       -1.9974010234
 O         -1.5973380924        1.0853519453       -1.1125779163
