  62
        -98.94762260
 C          1.8569805495        1.3076481005       -0.1028134740
 C          2.9392106625        0.5559403369        0.4182496768
 C          3.2222311058       -0.7192453859       -0.2470000976
 C          2.4645839889       -1.1106396576       -1.2871421851
 C          2.6100314742       -2.3945263665       -2.0567568141
 C          1.8897471590       -3.5771623377       -1.3943679714
 C          2.5804486310       -4.1392638373       -0.1511658534
 H          2.1103503202       -5.0998587386        0.0691880529
 H          3.6315158742       -4.3314822101       -0.3718701636
 C          2.4656601943       -3.2434174424        1.0903101748
 H          1.6474349164       -2.5318173648        0.9497151044
 H          2.1996268965       -3.8557811164        1.9558934932
 C          3.7449536988       -2.4863953827        1.4504231926
 H          3.5324670552       -1.8526525180        2.3155416828
 H          4.5217037274       -3.1992098365        1.7380653690
 C          4.2948368618       -1.5915915059        0.3319174664
 H          4.7512640022       -2.2016592450       -0.4473397220
 H          5.0598542410       -0.9397112933        0.7616562217
 H          0.8763457275       -3.2635724463       -1.1291809050
 H          1.8130894201       -4.3751381644       -2.1369462666
 H          2.1637116046       -2.2237819668       -3.0388030273
 H          3.6658473026       -2.6329399134       -2.1887699596
 O          1.4519218811       -0.3523641432       -1.7757260206
 C          1.0831732122        0.8352579227       -1.1635718524
 O          0.0761167918        1.3672917262       -1.6699374237
 O          3.6277232262        0.9295553415        1.4068604406
 C          1.4378349355        2.5616125804        0.6463219343
 C         -0.0429399356        2.4821731863        0.9246422824
 C         -0.9534696381        3.4897813776        0.6370219759
 C         -2.3042632376        3.3050916760        0.8821547637
 C         -2.7777948023        2.1072288329        1.3846840808
 C         -1.8722883515        1.0936768674        1.6771011606
 C         -0.5187642220        1.3015364707        1.4833834912
 H          0.1709002191        0.5036229215        1.7199696003
 N         -2.2898742510       -0.1730010201        2.1426305140
 S         -2.0695061628       -1.4464145533        1.0693466819
 O         -2.5498273122       -2.6196809014        1.7685448273
 O         -0.7018151218       -1.4855821141        0.6239205985
 C         -3.1828837674       -1.0691707712       -0.2725346581
 C         -2.8105824972       -0.1428990002       -1.2258716930
 C         -3.7261216132        0.1997384124       -2.2103704647
 C         -4.9849212824       -0.3802489362       -2.2236690554
 C         -5.3416857877       -1.3092950777       -1.2573576116
 C         -4.4355840261       -1.6537195832       -0.2682004263
 H         -4.6651676849       -2.3716380080        0.5028075289
 H         -6.3201836016       -1.7617689135       -1.2700911413
 H         -5.6906000188       -0.1068797722       -2.9923025735
 H         -3.4411840216        0.9228965828       -2.9576849277
 H         -1.8238832043        0.2946984145       -1.2032644168
 H         -3.2464307816       -0.1895462101        2.4710427636
 H         -3.8346744372        1.9508868673        1.5412893266
 H         -3.0004579125        4.0971106262        0.6521587443
 H         -0.6111050699        4.4124926158        0.1980779103
 H          1.9687567204        2.4891322740        1.6112875375
 C          1.8763525669        3.8713708912        0.0106519363
 C          3.0459339802        3.9197322248       -0.9253902347
 C          1.6622158034        4.1675445982       -1.4423623764
 H          1.3965497286        5.1757207248       -1.7250705419
 H          1.1911453588        3.4043020203       -2.0407916583
 H          3.7282497883        4.7532721344       -0.8510374267
 H          3.5247964187        2.9836326614       -1.1745779299
 H          1.7809609027        4.7072076162        0.6970909302
