  62
        -98.94289786
 C         -2.6888304463       -1.2072459448        0.2047427338
 C         -2.7070720750       -0.2895073997       -0.8732237805
 C         -3.8574319624        0.6227032434       -0.9104234299
 C         -4.8155768275        0.5338489634        0.0296098837
 C         -6.0562654455        1.3809564064        0.1131547924
 C         -5.8420171950        2.7322913068        0.8089054385
 C         -5.0531654182        3.7634427525        0.0007300718
 H         -5.4994571784        3.8662658391       -0.9888800733
 H         -5.1657305154        4.7226177669        0.5100259823
 C         -3.5563427022        3.4512132356       -0.1368742768
 H         -3.2665319886        2.7125085392        0.6141179075
 H         -2.9758096761        4.3543759242        0.0638390360
 C         -3.1385572529        2.9422759776       -1.5165475131
 H         -3.2969795142        3.7264581651       -2.2602057269
 H         -2.0699556994        2.7140216537       -1.4878943915
 C         -3.8795600551        1.6790227355       -1.9735063661
 H         -4.9054357530        1.9221547352       -2.2491017130
 H         -3.3657146619        1.2783771260       -2.8507183055
 H         -5.3411550675        2.5574704550        1.7639042168
 H         -6.8293097541        3.1482013841        1.0227629674
 H         -6.4571013713        1.5445638719       -0.8874935358
 H         -6.7852019559        0.8083571064        0.6906766141
 O         -4.7710082068       -0.3790683101        1.0367225764
 C         -3.7009059617       -1.2484418950        1.1646555874
 O         -3.7667803237       -2.0022122487        2.1569871661
 H          0.7176439834       -1.9172431175       -1.2257684646
 C          0.7819370619       -1.3527143988       -0.3088409311
 C         -0.2645073282       -1.3838879712        0.5977097506
 C         -0.1521444175       -0.6392452481        1.7695447151
 C          0.9752885552        0.1178616437        2.0211335573
 C          2.0139044886        0.1558750433        1.1062337940
 C          1.9127134034       -0.5822169435       -0.0640365953
 N          2.9571120912       -0.5339653483       -1.0026370324
 S          4.5223820127       -0.8210595965       -0.4730075224
 O          5.2396991677       -1.2795876310       -1.6427146198
 O          4.5379519003       -1.6989626144        0.6744089327
 C          5.1318736632        0.7885205510       -0.0163401956
 C          5.6523486275        0.9920999626        1.2466568095
 C          6.1379408947        2.2476643721        1.5774629023
 C          6.0956238499        3.2716780932        0.6437777393
 C          5.5712591246        3.0504110464       -0.6211584490
 C          5.0855230730        1.7972391102       -0.9586247121
 H          4.6736547377        1.5845236875       -1.9310951324
 H          5.5396604764        3.8494918045       -1.3442693407
 H          6.4736537170        4.2479999331        0.9032106233
 H          6.5459267332        2.4214708162        2.5602515130
 H          5.6597451599        0.1674766317        1.9415554846
 H          2.7630415114       -1.0396071683       -1.8546998942
 H          2.8943014388        0.7490833172        1.2923477846
 H          1.0470162070        0.6876346620        2.9352341131
 H         -0.9678279379       -0.6647820911        2.4799304274
 C         -1.5293532013       -2.1754732745        0.3691067169
 H         -1.7392915599       -2.7471031047        1.2840165689
 C         -1.4588340187       -3.1366530617       -0.7982185410
 C         -0.7112667274       -4.4272427501       -0.6533998512
 C         -2.2084464013       -4.4310106810       -0.7206862323
 H         -2.6839289873       -4.8055878699       -1.6147449146
 H         -2.7622166667       -4.6324286537        0.1847751891
 H         -0.1586391813       -4.8039071264       -1.5010659166
 H         -0.2443506542       -4.6291088316        0.2990298368
 H         -1.4332388401       -2.6356383124       -1.7586757205
 O         -1.8187815515       -0.2324872242       -1.7627315591
