  62
        -98.93136773
 C         -2.1706381859       -0.9664776959       -0.3938191118
 C         -2.9404355206       -0.4957543299        0.7003649766
 C         -3.4564399945        0.8795983253        0.6152630074
 C         -3.1616530450        1.6233994169       -0.4641622825
 C         -3.5285633718        3.0579331439       -0.7523320927
 C         -4.9485964486        3.5142470911       -0.3939574716
 C         -6.0352297460        2.4435248782       -0.5701017945
 H         -6.8462511646        2.8565854233       -1.1725987083
 H         -5.6304587549        1.5864566242       -1.1110301094
 C         -6.6297610621        1.9725734063        0.7591424224
 H         -6.7965319788        2.8436683293        1.3963947951
 H         -7.6038060822        1.5167807957        0.5663559458
 C         -5.7942576551        0.9465799497        1.5238067685
 H         -5.8065509207       -0.0102658224        0.9950203472
 H         -6.2687645982        0.7819540093        2.4941052020
 C         -4.3233597700        1.3297940790        1.7560533533
 H         -3.9679218238        0.7851906012        2.6351471504
 H         -4.2173721626        2.3954731953        1.9447004880
 H         -5.1733427628        4.3710182850       -1.0315054357
 H         -4.9669862796        3.8749392703        0.6333965167
 H         -2.8042091552        3.6989728101       -0.2405725039
 H         -3.3639417915        3.1825720257       -1.8255103301
 O         -2.4071088489        1.1389442369       -1.4889467790
 C         -1.8860738807       -0.1478725834       -1.4855620956
 O         -1.2096211530       -0.4099431456       -2.4987382043
 O         -3.1849385922       -1.2023958538        1.7147635930
 C         -1.6400107922       -2.3865415238       -0.2906298511
 C         -0.2611964458       -2.3826880417        0.3187830369
 C          0.0404852586       -3.1551635937        1.4334405606
 C          1.3015712405       -3.1090710844        2.0037684993
 C          2.2858325409       -2.2926322939        1.4759145335
 C          1.9922253987       -1.5167922263        0.3629854926
 C          0.7310976277       -1.5672644570       -0.2089730421
 H          0.5109303636       -0.9568389462       -1.0732780923
 N          2.9898150202       -0.6622632708       -0.1746237228
 S          3.2503568537        0.7363775873        0.7441589820
 O          3.4070306068        0.3549967869        2.1239700077
 O          2.2184039699        1.7137001813        0.4600474474
 C          4.8104605679        1.2870208101        0.0829735685
 C          5.9714779716        0.7146577519        0.5654602176
 C          7.1861407038        1.1098045212        0.0285952503
 C          7.2190527126        2.0634909095       -0.9779558040
 C          6.0450830565        2.6291241553       -1.4516947273
 C          4.8267487556        2.2373154810       -0.9191600456
 H          3.8902299490        2.6567098136       -1.2510502283
 H          6.0728046898        3.3720687136       -2.2325636008
 H          8.1653875538        2.3698673922       -1.3948765776
 H          8.1013419488        0.6738045372        0.3952698229
 H          5.8970887789       -0.0160526706        1.3534719733
 H          2.7281363021       -0.3553683858       -1.1043075527
 H          3.2640690458       -2.2313811981        1.9225909978
 H          1.5184257037       -3.7121422561        2.8722900350
 H         -0.7280446836       -3.7792320119        1.8658515012
 H         -2.3139215794       -2.8844077663        0.4244658848
 C         -1.7158411231       -3.1575540219       -1.6012193777
 C         -0.5143748719       -3.5902791558       -2.3818554319
 C         -1.3245319493       -4.6055446924       -1.6370469185
 H         -1.9381792133       -5.2949069074       -2.1965602628
 H         -0.8940022369       -5.0222716513       -0.7389200694
 H         -0.5814958833       -3.5548493007       -3.4584560578
 H          0.4628041024       -3.3393616913       -2.0004007974
 H         -2.5858727521       -2.8741176001       -2.1848862625
