  62
        -98.94524771
 C         -2.1965754671       -1.1753290283        0.1531212971
 C         -1.7682487474       -0.1974564393       -0.7784352363
 C         -2.5339567372        1.0566679434       -0.7746841436
 C         -3.5913602651        1.1975110949        0.0452085474
 C         -4.4918411195        2.4004613099        0.1303823760
 C         -3.9678729625        3.5118019629        1.0501838527
 C         -2.7688909971        4.2913112076        0.5087371494
 H         -2.9962358798        4.6551503708       -0.4936128778
 H         -2.6371440295        5.1646398050        1.1506069997
 C         -1.4574027298        3.4933976146        0.4840066870
 H         -0.6504882688        4.1052257110        0.8950029815
 H         -1.5546702099        2.6185249596        1.1319912039
 C         -1.0186230463        3.0358355023       -0.9075035285
 H         -0.7874972110        3.9097024051       -1.5202661589
 H         -0.1072227783        2.4426826274       -0.8010343280
 C         -2.0502154645        2.1745815838       -1.6476243556
 H         -1.5631826527        1.7289144585       -2.5180001392
 H         -2.8847595352        2.7882246962       -1.9852853010
 H         -4.7880829188        4.2147429561        1.2128993892
 H         -3.7109674867        3.0731465985        2.0174662705
 H         -4.6606668675        2.8029804017       -0.8686624547
 H         -5.4453420364        2.0467461010        0.5285958436
 O         -3.9872733112        0.2208376312        0.9049585290
 C         -3.2873516285       -0.9723918725        0.9979983718
 O         -3.7303155939       -1.7612099193        1.8586215611
 O         -0.7998666793       -0.3552833395       -1.5648632965
 C         -1.4904883382       -2.5135134336        0.2336314376
 C         -0.0031961821       -2.3780818426        0.4615548714
 C          0.8782402598       -3.3815920026        0.0731129259
 C          2.2343314062       -3.2644341730        0.3193328397
 C          2.7465896624       -2.1396674900        0.9390327763
 C          1.8792696514       -1.1213707455        1.3122918850
 C          0.5154792155       -1.2563919339        1.0927588562
 H         -0.1537552351       -0.4653215735        1.4077024216
 N          2.3877898925        0.0390410538        1.9232158586
 S          3.7139938845        0.8055529716        1.2450782414
 O          4.8910556264        0.0073215783        1.4816355086
 O          3.7142873203        2.1278221449        1.8288988226
 C          3.3860474356        0.9054381242       -0.5036269490
 C          2.6412454024        1.9719924028       -0.9650782173
 C          2.3336911013        2.0434139982       -2.3136167628
 C          2.7643518501        1.0441240469       -3.1718180149
 C          3.5165288337       -0.0173054737       -2.6944174871
 C          3.8351419116       -0.0896636853       -1.3480726352
 H          4.4297672828       -0.8923793427       -0.9458049666
 H          3.8534603524       -0.7909704317       -3.3654192345
 H          2.5132595084        1.0953690301       -4.2194709022
 H          1.7541592743        2.8716100668       -2.6888592710
 H          2.3320770927        2.7320820747       -0.2647113159
 H          1.6772883562        0.7172615995        2.1550712844
 H          3.7995002314       -2.0329265364        1.1428837369
 H          2.9022988020       -4.0589482456        0.0237021038
 H          0.4978984141       -4.2611771321       -0.4199152880
 H         -1.9203752607       -3.0328317739        1.1037482017
 C         -1.8041929722       -3.3208914063       -1.0143697896
 C         -2.0338144059       -4.7996596332       -0.9372786418
 C         -3.1858835653       -3.8747470832       -1.1857808969
 H         -3.6338544768       -3.8537838464       -2.1678915284
 H         -3.8882759895       -3.7040726740       -0.3823476092
 H         -1.6910933046       -5.4179420719       -1.7534456500
 H         -1.9688207347       -5.2695054482        0.0327726843
 H         -1.3125338158       -2.9241042721       -1.8953086453
