  62
        -98.94685994
 C         -1.2372757066       -1.2201742964        0.0862175809
 C         -1.9870838332       -0.6905598184        1.1621618391
 C         -2.6648497298        0.5869703765        0.9050674845
 C         -2.5085161093        1.1841870469       -0.2908726532
 C         -3.1942308808        2.4524909298       -0.7075471851
 C         -4.5345019305        2.1567618541       -1.3957423479
 C         -5.4280041894        1.1890888370       -0.6199500637
 H         -6.3569462353        1.0802739203       -1.1838710284
 H         -4.9519348554        0.2062755554       -0.5930841092
 C         -5.7503463801        1.6337538984        0.8135234673
 H         -5.5531628125        2.7006360190        0.9246441811
 H         -6.8160650724        1.4811950943        0.9968219657
 C         -4.9978402990        0.8637108664        1.9003134710
 H         -5.1209801725       -0.2104701842        1.7399972655
 H         -5.4531121376        1.1039009610        2.8649765162
 C         -3.4980358773        1.1650555000        2.0143121337
 H         -3.3447391662        2.2433851150        2.0922756047
 H         -3.1360494151        0.6998321929        2.9361416540
 H         -5.0620881363        3.1006703264       -1.5445809881
 H         -4.3317977274        1.7219417988       -2.3770274316
 H         -3.3555138029        3.0783561600        0.1679563335
 H         -2.5482075336        2.9816559738       -1.4089081438
 O         -1.7418191121        0.6679263320       -1.2829578694
 C         -1.0834454429       -0.5418681402       -1.1239897867
 O         -0.4101138010       -0.8943974444       -2.1079463402
 H          0.8976231561       -0.7549873281        1.6173749530
 C          1.5338295874       -1.3053192717        0.9347212594
 C          0.9735087111       -2.3067189985        0.1498224725
 C          1.8011394859       -3.0077335123       -0.7157875305
 C          3.1480367648       -2.6965795849       -0.8042812137
 C          3.6986589771       -1.6916041091       -0.0306871010
 C          2.8804322131       -0.9942630787        0.8491075968
 N          3.4290480176        0.0403945617        1.6405623005
 S          3.9975160450        1.3718422275        0.7963960241
 O          5.1684516296        0.9846206517        0.0525524477
 O          4.1831727078        2.4063012154        1.7888231946
 C          2.6806516350        1.8188212578       -0.3192723271
 C          1.7033808860        2.6865540021        0.1254209913
 C          0.6593196779        3.0116208983       -0.7247283296
 C          0.6063356834        2.4578315422       -1.9945327073
 C          1.5870226267        1.5764322941       -2.4206492535
 C          2.6359418999        1.2510000186       -1.5764533318
 H          3.4190334864        0.5732999324       -1.8747127311
 H          1.5281238014        1.1311844399       -3.4001887703
 H         -0.2085093628        2.7035791880       -2.6569955856
 H         -0.1102890808        3.6904698239       -0.3926053350
 H          1.7856800834        3.1030753452        1.1169461360
 H          2.7955515390        0.3572854711        2.3617343518
 H          4.7403697149       -1.4239139148       -0.1027424835
 H          3.7776851134       -3.2440424701       -1.4891282943
 H          1.3914071803       -3.7907169492       -1.3319990590
 C         -0.5113079737       -2.5410880358        0.2730756013
 H         -0.7251046403       -2.8506387207        1.3068075822
 C         -1.0484897980       -3.5929653964       -0.6728768962
 C         -0.9385988016       -5.0457050464       -0.3213746462
 C         -2.2721893747       -4.3636653028       -0.2811406914
 H         -2.9984710335       -4.6017064176       -1.0437911598
 H         -2.7084482938       -4.1476045370        0.6833829366
 H         -0.7510665222       -5.7556996671       -1.1125693898
 H         -0.4704492952       -5.2988203479        0.6178448944
 H         -0.9499127869       -3.3080426692       -1.7140026069
 O         -2.0787150643       -1.2554510135        2.2868343598
