  62
        -98.94516675
 C         -1.4961631692       -0.6378474144       -0.5241692947
 C         -2.6935944234       -1.1098745194        0.0751906547
 C         -3.5834335026       -0.0971885314        0.6549610854
 C         -3.2130966063        1.1954896513        0.6193222803
 C         -4.0372696812        2.3394677965        1.1339416411
 C         -4.9396920477        2.9155112044        0.0336654044
 C         -5.7382446193        1.8567414818       -0.7268397983
 H         -6.3599115051        2.3803377658       -1.4562698777
 H         -5.0462803102        1.2246703592       -1.2879507530
 C         -6.6255481657        0.9722264167        0.1601117046
 H         -7.6070179708        0.8783541414       -0.3093362881
 H         -6.7742867115        1.4501827877        1.1290383089
 C         -6.0958726441       -0.4472367288        0.3721420419
 H         -6.8937156331       -1.0441023320        0.8219779484
 H         -5.8560693991       -0.8969173654       -0.5945805540
 C         -4.8653372398       -0.5721189588        1.2795335644
 H         -5.0488358197       -0.0532886738        2.2228639796
 H         -4.7170726039       -1.6342961576        1.4953348711
 H         -4.3123267100        3.4516207561       -0.6821543854
 H         -5.6241545034        3.6331006120        0.4898153665
 H         -4.6413099699        1.9956498201        1.9716026901
 H         -3.3592262278        3.1198927368        1.4842095095
 O         -2.0529200931        1.6118332067        0.0567250164
 C         -1.1659416979        0.7177513516       -0.5295173996
 O         -0.1629713064        1.2713171009       -1.0180921391
 H          1.5056931154       -0.2732341833       -0.0953421509
 C          1.4402855483       -1.2555004209        0.3409783735
 C          0.4291400171       -2.1184441660       -0.0610506061
 C          0.3349874022       -3.3695376920        0.5372537219
 C          1.2290757624       -3.7452138741        1.5236315151
 C          2.2260733363       -2.8793753158        1.9317744100
 C          2.3296657276       -1.6234593217        1.3401951974
 N          3.3507999368       -0.7506964841        1.7295082767
 S          3.2323864460        0.9151661848        1.6226828905
 O          4.2105655390        1.3869818461        2.5831241426
 O          1.8794077386        1.3753616455        1.8234938462
 C          3.8405820033        1.2661579280       -0.0129420720
 C          5.1725681099        0.9852901948       -0.2536349852
 C          5.6948384337        1.2303474858       -1.5121099555
 C          4.8793468730        1.7509126167       -2.5063735624
 C          3.5471863485        2.0302694354       -2.2471813788
 C          3.0168128629        1.7888959118       -0.9878463093
 H          1.9782855580        1.9828275539       -0.7668098616
 H          2.9080980146        2.4323908137       -3.0173643319
 H          5.2832565049        1.9406881012       -3.4884543749
 H          6.7314790044        1.0150713655       -1.7154562024
 H          5.7717643832        0.5918589658        0.5505119335
 H          3.8913731174       -1.0466515188        2.5281306926
 H          2.9193871994       -3.1664291061        2.7077155590
 H          1.1441293793       -4.7176791042        1.9845830368
 H         -0.4604808968       -4.0369246247        0.2399432597
 C         -0.5754033952       -1.6980423451       -1.1087075610
 H         -1.2250865688       -2.5621550110       -1.3057175391
 C          0.0994915052       -1.3033265808       -2.4055430136
 C          0.6291790929       -2.3826961497       -3.2999672826
 C         -0.5821549195       -1.5994383551       -3.7063634489
 H         -0.4919664881       -0.8825795370       -4.5084480355
 H         -1.5438901202       -2.0902847784       -3.6673336093
 H          0.4878625745       -3.4058723309       -2.9860909019
 H          1.5557299951       -2.2063867113       -3.8239046949
 H          0.6621829300       -0.3820426006       -2.3421295275
 O         -3.0075309838       -2.3302758785        0.1143104627
