  62
        -98.94182197
 C          2.7696907160        0.1227008039       -0.1978861331
 C          2.0347242036       -0.6669243054       -1.1153079798
 C          1.9053632651       -2.0928063473       -0.7820751595
 C          2.4774317803       -2.5712697639        0.3360418295
 C          2.3807349078       -3.9900730360        0.8147983065
 C          1.1974164248       -4.1847389580        1.7725962985
 C         -0.1286818988       -3.6238334395        1.2573747626
 H         -0.8940796610       -3.8780763777        1.9947263654
 H         -0.0795901561       -2.5321389593        1.2238786030
 C         -0.5554141914       -4.1490914361       -0.1202468138
 H         -0.0235179389       -5.0738529385       -0.3487618200
 H         -1.6209512815       -4.3856694415       -0.0842659371
 C         -0.3569732841       -3.1477364068       -1.2598857828
 H         -0.9291781328       -3.4934777086       -2.1253877367
 H         -0.7587888424       -2.1776188161       -0.9540782366
 C          1.0933703383       -2.9435195931       -1.7173796194
 H          1.5718901029       -3.9117581271       -1.8776016719
 H          1.0728201194       -2.4072241203       -2.6705126842
 H          1.4307492701       -3.6889007390        2.7178347887
 H          1.0882037862       -5.2535731721        1.9676305588
 H          2.2775138289       -4.6500185390       -0.0444320749
 H          3.3043433655       -4.2364292221        1.3418111668
 O          3.1973159031       -1.7919524437        1.1830413528
 C          3.3347595296       -0.4353250435        0.9537993586
 O          3.9906467871        0.1646051473        1.8299248767
 H          0.3933972252        1.3442106154       -1.1773244451
 C          0.4539377815        2.0007116444       -0.3220549020
 C          1.6947449692        2.2968640701        0.2234807773
 C          1.7461296974        3.1381080568        1.3282388476
 C          0.5839722672        3.6495707216        1.8812868368
 C         -0.6536489502        3.3119712912        1.3616725607
 C         -0.7104166016        2.4778991144        0.2546931531
 N         -1.9759613622        2.0399338128       -0.2301236886
 S         -2.5017746129        0.7508319504        0.7455359343
 O         -2.7896900757        1.2837525979        2.0536176749
 O         -1.5477923188       -0.3356508556        0.6976464710
 C         -4.0200879587        0.2800441540       -0.0614984729
 C         -4.0607836833       -0.8707447467       -0.8240073876
 C         -5.2430136767       -1.2081584900       -1.4646347898
 C         -6.3553141798       -0.3905969465       -1.3355145130
 C         -6.2978807019        0.7628948302       -0.5669700804
 C         -5.1200848634        1.1047344453        0.0776581496
 H         -5.0297409708        1.9850930621        0.6917026783
 H         -7.1656068013        1.3949387904       -0.4683912465
 H         -7.2734151184       -0.6557329389       -1.8356284810
 H         -5.2896385489       -2.1056081943       -2.0602858830
 H         -3.1730130966       -1.4795261494       -0.8928712410
 H         -1.8744019347        1.6701632913       -1.1691886546
 H         -1.5684131907        3.6575962102        1.8143927233
 H          0.6419142583        4.2978205030        2.7426408845
 H          2.7038419466        3.3653100156        1.7739959154
 C          2.9345822483        1.6322034579       -0.3266751624
 H          3.7772975499        1.8994269993        0.3249687376
 C          3.2465194381        2.1018021954       -1.7331182478
 C          3.8966534654        3.4382827908       -1.9213586122
 C          4.6742685881        2.1831891194       -2.1783347974
 H          4.9102795848        1.9186880234       -3.1979734295
 H          5.4361174483        1.8998212440       -1.4665002751
 H          3.5983444007        4.0405367395       -2.7655554687
 H          4.1339461719        4.0082164250       -1.0357807593
 H          2.5155065482        1.7874809389       -2.4656307158
 O          1.4988412758       -0.2299685550       -2.1707608040
