  62
        -98.94358429
 C         -1.8125625803       -0.8231786795        0.8298800298
 C         -2.0406839202       -0.4085448000       -0.5044344503
 C         -3.4450503402       -0.4074294202       -0.9397166704
 C         -4.4019244602       -0.8105781199       -0.0839097203
 C         -5.8732704202       -0.8088590700       -0.3800680204
 C         -6.5234900402        0.5145282201        0.0470526890
 C         -5.7800030302        1.7553304400       -0.4476819614
 H         -6.3453016803        2.6279863301       -0.1132065718
 H         -4.8016926603        1.8019069302        0.0362964886
 C         -5.5938564701        1.8189915494       -1.9700929614
 H         -5.8349731501        2.8284471092       -2.3098618819
 H         -6.2928693801        1.1381889292       -2.4572365312
 C         -4.1729658901        1.5148832892       -2.4488308112
 H         -4.1010086600        1.8015993888       -3.5013712713
 H         -3.4591905001        2.1284843694       -1.8930844014
 C         -3.7323319301        0.0494613892       -2.3422279806
 H         -4.4770266200       -0.5945272309       -2.8142373204
 H         -2.7902149000       -0.0541855009       -2.8881727805
 H         -6.5563730003        0.5476436506        1.1386080290
 H         -7.5498983902        0.5309389700       -0.3239716211
 H         -6.0245732101       -0.9730741304       -1.4450680904
 H         -6.3368232502       -1.6266008698        0.1742931098
 O         -4.1393192103       -1.2247640794        1.1826005398
 C         -2.8446066103       -1.2271611792        1.6756576199
 O         -2.7445316104       -1.6018746687        2.8620027801
 H          2.0976837697       -0.1296761796        0.4529905098
 C          1.5063365497        0.7165799605        0.7576055695
 C          0.2255213197        0.5292016407        1.2513013595
 C         -0.5032979004        1.6455893509        1.6542225390
 C          0.0307831996        2.9143152108        1.5452840485
 C          1.3077833396        3.0976659707        1.0438896985
 C          2.0485441297        1.9905787105        0.6500008990
 N          3.3317033797        2.1457079303        0.1115144490
 S          4.5192408797        0.9977075304        0.3463410596
 O          4.4644291096        0.4333390510        1.6749112698
 O          5.7499130797        1.6781415903        0.0022275594
 C          4.1952963198       -0.2621738300       -0.8697799800
 C          4.4948927198       -1.5739419499       -0.5587351194
 C          4.2761209399       -2.5570968903       -1.5108639391
 C          3.7645397300       -2.2125709108       -2.7522552692
 C          3.4734230400       -0.8902244309       -3.0504393398
 C          3.6932391199        0.0979926995       -2.1042849901
 H          3.4692986399        1.1326050994       -2.3033620706
 H          3.0712815001       -0.6261765013       -4.0153168599
 H          3.5895822701       -2.9793815811       -3.4905501990
 H          4.5020762199       -3.5863334302       -1.2807098687
 H          4.8799934298       -1.7982652195        0.4235565307
 H          3.6953887597        3.0866821803        0.1089154987
 H          1.7248811696        4.0891793106        0.9549203982
 H         -0.5495858904        3.7703009909        1.8560316681
 H         -1.5004834404        1.5031781610        2.0492080090
 C         -0.3977165903       -0.8394736892        1.3787188599
 H         -0.4863701304       -1.0743154388        2.4499515900
 C          0.4046635798       -1.9338412895        0.7052370804
 C          1.5371208897       -2.5968926292        1.4281785408
 C          0.2586352697       -3.3424514993        1.1935951210
 H          0.2536818798       -4.1420052496        0.4683586613
 H         -0.4013043203       -3.5093434390        2.0327338710
 H          1.7578380896       -2.2603195388        2.4301861906
 H          2.4091816098       -2.8846163894        0.8607815809
 H          0.5000710298       -1.7810815699       -0.3639720196
 O         -1.1230416801       -0.0576039503       -1.2901652704
