  62
        -98.93791778
 C         -2.2180446500       -0.8841594302       -0.0453343189
 C         -3.2370721699       -0.7752244089        0.9338251811
 C         -4.1648874998        0.3552122211        0.7878741498
 C         -3.9786243898        1.2271461198       -0.2197056513
 C         -4.8793017297        2.3835897995       -0.5489256927
 C         -6.1448340998        1.8756718188       -1.2694794219
 C         -7.4414448497        2.0767719999       -0.4847094721
 H         -7.7297326496        3.1286350698       -0.5394660433
 H         -8.2191405598        1.4955402594       -0.9847239213
 C         -7.3953602797        1.6800121417        0.9939820084
 H         -6.9137938195        2.4706398623        1.5713002074
 H         -8.4295487697        1.6273361222        1.3407849985
 C         -6.7016022498        0.3488699220        1.3105590300
 H         -6.7195999999       -0.3102823091        0.4424567908
 H         -7.2678990298       -0.1492906770        2.1000460106
 C         -5.2535733397        0.4852177824        1.8172933297
 H         -5.0572362298       -0.3181292767        2.5333971306
 H         -5.1405977196        1.4337890631        2.3494749785
 H         -6.0110104100        0.8141017085       -1.4878629007
 H         -6.2443209098        2.3831156276       -2.2302343225
 H         -5.1440619096        2.9146771007        0.3627066067
 H         -4.3179149297        3.0584504087       -1.1955006435
 O         -2.9707440199        1.1074719586       -1.1219880712
 C         -2.0670465300        0.0560837086       -1.0639448300
 O         -1.2072857601        0.0789118274       -1.9662871401
 O         -3.3652773600       -1.5904525377        1.8858490821
 C         -1.2403521602       -2.0428482401        0.0688964824
 C          0.1076299199       -1.4882006798        0.4567304317
 C          0.3558033801       -1.1787503282        1.7914342813
 C          1.5574465402       -0.6127393379        2.1723489405
 C          2.5340801501       -0.3353893791        1.2309907201
 C          2.2880569300       -0.6217994207       -0.1043975695
 C          1.0878470999       -1.2102324011       -0.4824308287
 H          0.9051115898       -1.4151877023       -1.5252522585
 N          3.2679146799       -0.3370648820       -1.0702813700
 S          4.0461622301        1.1480510380       -1.0121077818
 O          3.2148573303        2.1742658488       -0.4261650230
 O          4.5074347500        1.3856442963       -2.3628641922
 C          5.4582754802        0.8355296591        0.0292884484
 C          5.7249834703        1.6691780503        1.0976115574
 C          6.8348764204        1.4127705812        1.8878551676
 C          7.6549242402        0.3336097807        1.5964818989
 C          7.3752508100       -0.4923922305        0.5179293599
 C          6.2680481600       -0.2409662214       -0.2763534903
 H          6.0170439099       -0.8569646224       -1.1235188395
 H          8.0152617199       -1.3306634909        0.2943539609
 H          8.5169609502        0.1352551814        2.2136270491
 H          7.0537277705        2.0544214322        2.7262576268
 H          5.0552358004        2.4924451606        1.2900691165
 H          2.9736410199       -0.5477161231       -2.0133083197
 H          3.4692254102        0.1160718411        1.5191798195
 H          1.7375752303       -0.3823887667        3.2114074802
 H         -0.4145879999       -1.3764256672        2.5237078016
 H         -1.6106939802       -2.6514825491        0.9046602732
 C         -1.2160598103       -2.8959888317       -1.1818045265
 C         -0.5736659805       -4.2491422817       -1.1315843349
 C         -2.0630432105       -4.1301702216       -1.2432696950
 H         -2.5330694406       -4.3846994727       -2.1814648846
 H         -2.6619780204       -4.3685817005       -0.3766854646
 H         -0.0187260906       -4.5893922828       -1.9924270346
 H         -0.1597678005       -4.5664541806       -0.1865712246
 H         -1.1179814204       -2.3200571528       -2.0940977372
