  62
        -98.93906937
 C          1.8957166737        0.1748337005       -0.6902425258
 C          2.9297215824        1.1203198295       -0.5036468018
 C          4.2960586797        0.5870975803       -0.3673558942
 C          4.4927432622       -0.7437143081       -0.4202689759
 C          5.7635146425       -1.5653181322       -0.3539964842
 C          7.0710153968       -0.9463441625        0.1337461673
 C          7.0836295216       -0.5582288661        1.6119108410
 H          8.0224517727       -0.0406262784        1.8207881073
 H          7.0673608131       -1.4721900344        2.2110512084
 C          5.9205864940        0.3158823724        2.0743587599
 H          6.0539639852        0.5116184574        3.1418442601
 H          4.9830765698       -0.2330295664        1.9633758629
 C          5.7943289691        1.6638523816        1.3671462335
 H          6.7389384147        2.2063720865        1.4384870695
 H          5.0347595090        2.2438492619        1.8981668265
 C          5.3755500074        1.5993615533       -0.1120677863
 H          6.2311293718        1.4204764353       -0.7586761271
 H          4.9549026480        2.5712514039       -0.3860368183
 H          7.3394885147       -0.0958987167       -0.4859555186
 H          7.8466428913       -1.7026679953       -0.0148088269
 H          5.9204776951       -1.9504155888       -1.3677317781
 H          5.5234362426       -2.4325265079        0.2693991069
 O          3.4603131116       -1.6180990250       -0.6086023116
 C          2.1475463614       -1.1945301730       -0.7387209119
 O          1.3239168409       -2.1166591926       -0.8885571334
 O          2.7223917482        2.3626151115       -0.4539665840
 C          0.4669733747        0.6675340214       -0.8347400786
 C         -0.3893236429        0.0746293905        0.2559613355
 C          0.0077258611        0.2478024506        1.5806101416
 C         -0.7228241872       -0.2999783617        2.6157350181
 C         -1.8749583387       -1.0219684572        2.3544335150
 C         -2.2850995650       -1.1943279235        1.0389801252
 C         -1.5466677622       -0.6420633716       -0.0006616807
 H         -1.8817968390       -0.8085089940       -1.0100873675
 N         -3.4440047183       -1.9318372498        0.7452904372
 S         -4.5657198951       -1.3359980814       -0.3413643285
 O         -5.7578440293       -2.1173973635       -0.0966734885
 O         -4.0418078693       -1.3757301626       -1.6819688233
 C         -4.8246563386        0.3493193719        0.1805272260
 C         -5.6700436450        0.5794598122        1.2486948288
 C         -5.8267895685        1.8748993621        1.7132088273
 C         -5.1302322366        2.9120970510        1.1113193749
 C         -4.2858318774        2.6643270191        0.0403316551
 C         -4.1287434825        1.3708947510       -0.4327046762
 H         -3.4853688362        1.1400764589       -1.2654116665
 H         -3.7463716355        3.4722665501       -0.4277817114
 H         -5.2475503284        3.9201622782        1.4765462254
 H         -6.4868996352        2.0718698373        2.5424921731
 H         -6.1996270944       -0.2536659702        1.6817437436
 H         -3.9054799495       -2.3186264823        1.5556956107
 H         -2.4438137201       -1.4589080214        3.1610546869
 H         -0.3966079045       -0.1636033362        3.6357455043
 H          0.9088457124        0.8103083339        1.7838368490
 H          0.5192777699        1.7554620946       -0.6799860640
 C         -0.0462638306        0.4000109409       -2.2330163086
 C         -1.0764686607        1.3014920640       -2.8423387047
 C          0.3366694757        1.3338035815       -3.3403859959
 H          0.5542820757        0.9177849742       -4.3126348046
 H          0.9501208456        2.1845156994       -3.0816385452
 H         -1.8378737448        0.8632209818       -3.4708974574
 H         -1.4144510803        2.1399324393       -2.2518748229
 H         -0.0880948724       -0.6574938098       -2.4705109509
