  62
        -98.93711810
 C          1.7010323291        0.6550146460        0.0950712117
 C          2.8819265701        1.1526197220        0.6952297664
 C          4.1447814803        0.8069709647        0.0264119926
 C          4.1086149667        0.0673923734       -1.0970829908
 C          5.3097763367       -0.4357730510       -1.8463639076
 C          5.9131647743       -1.6523700523       -1.1154884769
 C          7.3141417675       -1.4179476481       -0.5497198045
 H          7.5398833825       -2.2515351784        0.1187775004
 H          8.0364913352       -1.4474319883       -1.3681678881
 C          7.5178326108       -0.1020803716        0.2074527241
 H          8.4528262510       -0.1974613227        0.7636355720
 H          7.6612226850        0.7123621418       -0.5041296658
 C          6.4017960116        0.2900927142        1.1842821168
 H          6.8652526988        0.7236006865        2.0728195478
 H          5.8506520000       -0.5916366860        1.5121257565
 C          5.4117161916        1.3367586745        0.6394813605
 H          5.0777771860        1.9663368841        1.4694896242
 H          5.9227700012        1.9836605012       -0.0787406793
 H          5.2352255498       -1.9367500602       -0.3078003886
 H          5.9580822015       -2.5017746212       -1.7988688090
 H          4.9745010784       -0.7199836898       -2.8440110955
 H          6.0459126935        0.3596253620       -1.9387879066
 O          2.9521644184       -0.3835233868       -1.6501891294
 C          1.7210206266       -0.1099840518       -1.0703393698
 O          0.7478607266       -0.5921062056       -1.6798907376
 O          2.8793486456        1.8499203183        1.7455190776
 C          0.3648264133        0.9619557553        0.7464523381
 C         -0.3366061004       -0.3176745404        1.1286139642
 C          0.3630801436       -1.2674349832        1.8698628299
 C         -0.2383603082       -2.4498715910        2.2518504617
 C         -1.5519748241       -2.7117150669        1.9031038568
 C         -2.2635430635       -1.7686011173        1.1727220224
 C         -1.6574920099       -0.5762394645        0.7976731887
 H         -2.2257068327        0.1391204474        0.2279622476
 N         -3.6109410431       -1.9863855639        0.8518170937
 S         -4.2339966241       -1.5210848842       -0.6307050636
 O         -5.4615309324       -2.2818585910       -0.7465671222
 O         -3.2825266172       -1.6897336922       -1.7024883846
 C         -4.6528069439        0.1967508431       -0.4262925612
 C         -5.3482014761        0.5809590600        0.7033904681
 C         -5.7147575474        1.9098746612        0.8429356662
 C         -5.3900780063        2.8251983962       -0.1469519431
 C         -4.6942626182        2.4225478618       -1.2768663112
 C         -4.3203552144        1.0951663490       -1.4204030652
 H         -3.7664186151        0.7400388473       -2.2755169114
 H         -4.4404514913        3.1347997324       -2.0462542150
 H         -5.6774058138        3.8590833239       -0.0376537266
 H         -6.2533570343        2.2282582257        1.7207718740
 H         -5.5870525912       -0.1596069313        1.4479755703
 H         -3.9729143273       -2.8857215879        1.1344766342
 H         -2.0226367189       -3.6385240855        2.1943920881
 H          0.3191705142       -3.1780488680        2.8217758988
 H          1.3908316981       -1.0641757685        2.1388250644
 H          0.6146592540        1.5007617778        1.6730135307
 C         -0.4659925330        1.8728135089       -0.1317325624
 C         -1.4450548864        2.8210501393        0.4918180417
 C         -0.1810071635        3.3438302474       -0.1196908369
 H         -0.2416870934        3.8868914180       -1.0507521331
 H          0.6036569575        3.6900981698        0.5370562358
 H         -2.3788522511        3.0070291851       -0.0163912332
 H         -1.5217516607        2.8177654937        1.5684372873
 H         -0.7199277167        1.4187980262       -1.0837140296
