  62
        -98.93683163
 C          2.1131702558        1.3494747076       -0.0197599217
 C          2.8542752123        0.6069475544        0.9259301196
 C          3.6319349643       -0.5360238250        0.4131940231
 C          3.5492336716       -0.8455712637       -0.8934443599
 C          4.2402014381       -1.9536798359       -1.6474219336
 C          4.2646905568       -3.3353390976       -0.9754132119
 C          5.6529765297       -3.7481141240       -0.4828649693
 H          5.6926177647       -4.8381358061       -0.4256533934
 H          6.3910642573       -3.4335249473       -1.2234491368
 C          6.0463546417       -3.1991784116        0.8874354236
 H          5.4658024334       -3.7079328084        1.6601485598
 H          7.0969593327       -3.4483427980        1.0534996743
 C          5.8666130618       -1.6901277705        1.0642782167
 H          6.1785617464       -1.1600590018        0.1652782056
 H          6.5284109306       -1.3678077679        1.8708515925
 C          4.4356348880       -1.2812924066        1.4442056466
 H          3.8686580354       -2.1609259725        1.7638864608
 H          4.4621077375       -0.6120193781        2.3099451982
 H          3.5463844674       -3.3627721673       -0.1570529379
 H          3.9368409745       -4.0693458259       -1.7135069648
 H          3.7129807601       -2.0154541038       -2.6022143140
 H          5.2603333099       -1.6341488731       -1.8746567142
 O          2.7880324402       -0.1229985442       -1.7646979772
 C          2.0546125292        0.9804312424       -1.3631748900
 O          1.4116671504        1.5302137416       -2.2762315000
 H         -0.0009432892        0.4428052191        1.3995705781
 C         -0.6674185162        1.0684256174        0.8175161079
 C         -0.1687804411        2.2345395796        0.2478815902
 C         -1.0310074592        3.0277565015       -0.4957625536
 C         -2.3505051382        2.6477006097       -0.6756928431
 C         -2.8384193716        1.4813295482       -0.1162496003
 C         -1.9858094362        0.6850092808        0.6378743807
 N         -2.4754155819       -0.5039319554        1.2171500011
 S         -3.0930465518       -1.6523365216        0.1527800869
 O         -2.9557470601       -2.9183651200        0.8408574193
 O         -2.4720965141       -1.5577814569       -1.1488444581
 C         -4.8203318193       -1.2360983339        0.0438055548
 C         -5.3821311314       -0.9441024606       -1.1834280065
 C         -6.7302773087       -0.6262122503       -1.2437721920
 C         -7.4873629952       -0.6061360324       -0.0823658061
 C         -6.9078163057       -0.9039365085        1.1422135540
 C         -5.5613285168       -1.2240142483        1.2095243675
 H         -5.0722446082       -1.4658832102        2.1382655580
 H         -7.4999050743       -0.8871658560        2.0429443806
 H         -8.5355404084       -0.3569030367       -0.1321326950
 H         -7.1821010327       -0.3946573108       -2.1949091794
 H         -4.7512238581       -0.9657847814       -2.0578379230
 H         -1.8077255012       -0.9433017782        1.8358521732
 H         -3.8633527206        1.1804647693       -0.2601981505
 H         -3.0077904279        3.2692573209       -1.2643133182
 H         -0.6673452136        3.9353739419       -0.9480817953
 C          1.2948606788        2.5389558042        0.4530269877
 H          1.4807392030        2.6092438530        1.5348264489
 C          1.7595194047        3.8182277098       -0.2074050080
 C          1.5193252081        5.1363258571        0.4642457657
 C          2.9052824790        4.5710681701        0.3973501681
 H          3.6225280664        5.0344453766       -0.2632297179
 H          3.3407350702        4.1708964093        1.3013880476
 H          1.2860245278        5.9928643895       -0.1496340491
 H          1.0132250808        5.1250647518        1.4175559950
 H          1.7066081784        3.7740569717       -1.2890733011
 O          2.8669472934        0.8843273444        2.1572929019
