  62
        -98.93990097
 C          2.6356381470        0.2008833240        0.5534923787
 C          2.1704409821       -0.2463819728       -0.7093856243
 C          1.9847968746       -1.6992132370       -0.8489609197
 C          2.2348206587       -2.5042428768        0.1981168915
 C          2.0897475583       -3.9981466098        0.1916976355
 C          0.6987915058       -4.4416488019        0.6620711644
 C         -0.4574122085       -3.7221245794       -0.0333183702
 H         -1.3831333391       -4.1714910223        0.3343019413
 H         -0.4741785819       -2.6726834396        0.2695796733
 C         -0.4320748835       -3.7999022702       -1.5657910661
 H          0.2020959425       -4.6278526052       -1.8873186039
 H         -1.4444283623       -4.0075462962       -1.9190889786
 C          0.0211561099       -2.5129177448       -2.2592472770
 H         -0.5269928084       -1.6599924260       -1.8470721694
 H         -0.2426885631       -2.5858527495       -3.3184095462
 C          1.5231577988       -2.2079643637       -2.1848579153
 H          2.0935030095       -3.0920188818       -2.4805769600
 H          1.7332720889       -1.4063716917       -2.8993707798
 H          0.6101399718       -5.5174030749        0.4964699318
 H          0.6196788972       -4.2544564083        1.7354465051
 H          2.2774051164       -4.3667210789       -0.8151196770
 H          2.8394963543       -4.4148042412        0.8671329834
 O          2.6392106124       -2.0361346622        1.4073982057
 C          2.8148910720       -0.6793366405        1.6220555093
 O          3.1304766971       -0.3846039851        2.7937857991
 H          0.3301784080        1.1856370801        1.5335872466
 C          0.3732985320        1.9945453149        0.8124938304
 C          1.6107126796        2.4217093883        0.3468874507
 C          1.6435610263        3.4500432214       -0.5847894865
 C          0.4669726740        4.0013812549       -1.0636865841
 C         -0.7631844502        3.5348665404       -0.6351823239
 C         -0.8020181797        2.5274240717        0.3157531156
 N         -2.0644778117        1.9831258461        0.7145621815
 S         -2.2917738283        0.4909957984       -0.0597498793
 O         -1.5321161969       -0.5423787510        0.6137377721
 O         -2.0452365343        0.6736525698       -1.4662948126
 C         -4.0353856207        0.2302779507        0.2090748783
 C         -4.9164062635        1.1016027926       -0.4022025229
 C         -6.2755748960        0.9387719463       -0.1899873860
 C         -6.7288050456       -0.0876972979        0.6259540077
 C         -5.8325274630       -0.9546219938        1.2315178939
 C         -4.4706865085       -0.7951846662        1.0244786866
 H         -3.7367006140       -1.4457675897        1.4728194779
 H         -6.1867615071       -1.7526594742        1.8640592009
 H         -7.7873807404       -0.2135193519        0.7899185452
 H         -6.9758895870        1.6105064776       -0.6596066013
 H         -4.5159487438        1.8787928907       -1.0314638170
 H         -2.0773369675        1.7921845774        1.7095542627
 H         -1.6850056681        3.9253417063       -1.0338341319
 H          0.5103765535        4.7880524202       -1.8015807522
 H          2.5908620886        3.7920481635       -0.9689894317
 C          2.8228713706        1.6811772353        0.8542778061
 H          2.8243980314        1.7468143389        1.9554473332
 C          4.1443362225        2.2675927795        0.3842099741
 C          5.3662008081        1.4073026622        0.2656640775
 C          4.7241412218        1.9707937076       -0.9646040674
 H          5.2342940623        2.7670805378       -1.4867644017
 H          4.1712776864        1.3080766480       -1.6107381163
 H          6.3131093883        1.8140317092        0.5874036513
 H          5.2528785836        0.3512749099        0.4650452412
 H          4.3000991832        3.2697531470        0.7718809909
 O          1.9402879819        0.5155554037       -1.6836030611
