  62
        -98.93716865
 C         -2.0185897524       -0.8346784085        0.4728218732
 C         -2.7662381640        0.2408132034        1.0163714531
 C         -4.1976915856        0.3078726216        0.6777393884
 C         -4.7286614056       -0.6376482969       -0.1193955681
 C         -6.1470539315       -0.8567785471       -0.6025915324
 C         -7.1968095594        0.2426838794       -0.4652707036
 C         -6.9516123170        1.4731404444       -1.3381020199
 H         -7.1033501937        1.1930656341       -2.3835751284
 H         -7.6999981730        2.2269441387       -1.0840032883
 C         -5.5620563758        2.0957009907       -1.2264562422
 H         -4.8105479775        1.3825767917       -1.5715473643
 H         -5.5247621806        2.9537798177       -1.9031624947
 C         -5.1749209668        2.5875943343        0.1668902883
 H         -5.9360752983        3.2762288549        0.5389611609
 H         -4.2385547487        3.1442743090        0.0709722722
 C         -4.9516747515        1.4878972601        1.2194038732
 H         -4.3328019920        1.9065359281        2.0185475080
 H         -5.8910860526        1.1714670799        1.6666391098
 H         -8.1492054698       -0.1961249267       -0.7750906483
 H         -7.3074097037        0.5300061064        0.5761812870
 H         -6.0616351070       -1.1402092361       -1.6563942223
 H         -6.5062468622       -1.7461924507       -0.0731938332
 O         -3.9739030101       -1.6604757603       -0.6112663863
 C         -2.6186840008       -1.7865546618       -0.3498323027
 O         -2.0990494027       -2.7711101455       -0.9102099400
 H          1.3252614842        1.0342649471        1.1387004173
 C          1.2586938698        0.6868360845        0.1189041603
 C          0.3381389694       -0.2912270441       -0.2282819230
 C          0.2792820417       -0.7143633529       -1.5523820396
 C          1.1142300668       -0.1575922583       -2.5036552940
 C          2.0418405654        0.8073774765       -2.1504489586
 C          2.1176513546        1.2269463383       -0.8287162751
 N          3.0704111496        2.1829656345       -0.4200414010
 S          4.2035910137        1.6808401321        0.7090743603
 O          3.5476932271        1.3578861077        1.9489205593
 O          5.1885628789        2.7376059927        0.7542450099
 C          4.9160117375        0.2160804617       -0.0200996129
 C          6.0741340227        0.3390394692       -0.7629396149
 C          6.5861629052       -0.7805859068       -1.3983771617
 C          5.9262263774       -1.9955709575       -1.2920947154
 C          4.7625885506       -2.1015039834       -0.5458603352
 C          4.2489429141       -0.9873266836        0.0990602870
 H          3.3473046039       -1.0384338434        0.6872778188
 H          4.2463905354       -3.0447297373       -0.4660149658
 H          6.3204072529       -2.8660322819       -1.7923777803
 H          7.4927072670       -0.7018608189       -1.9765632884
 H          6.5537399093        1.3031040265       -0.8170678973
 H          3.5452474767        2.6344350864       -1.1898787496
 H          2.7002174712        1.2342446955       -2.8920616275
 H          1.0508224113       -0.4879934486       -3.5292418669
 H         -0.4278763619       -1.4817267643       -1.8269906047
 C         -0.5468393625       -0.8913164514        0.8385169633
 H         -0.4507579433       -0.2627292087        1.7347798050
 C         -0.0550937584       -2.2849859553        1.1820174635
 C          1.1376296508       -2.4309425687        2.0773123862
 C         -0.2267097484       -2.7991445943        2.5779669218
 H         -0.4638848363       -3.8431884916        2.7162061732
 H         -0.6991899559       -2.1455301292        3.2969946791
 H          1.8400427616       -3.2256600374        1.8770902122
 H          1.5906580591       -1.5292691189        2.4650521216
 H         -0.1718893115       -2.9926843990        0.3715769482
 O         -2.2570056634        1.1120006727        1.7728406261
