  62
        -98.93824145
 C          1.2410404402        1.6479365935       -0.1458468448
 C          1.3295475886        0.2440980018       -0.2888916195
 C          2.5373710302       -0.4074033900        0.2643025997
 C          3.4723012894        0.3491787057        0.8667083832
 C          4.7852213616       -0.0846279171        1.4627894228
 C          5.8501345649       -0.3887228343        0.3964598033
 C          5.3526902006       -1.2008804186       -0.7964293719
 H          6.1663125833       -1.2516903902       -1.5249876834
 H          4.5262072893       -0.6692894947       -1.2714567413
 C          4.9214386806       -2.6300389054       -0.4763615601
 H          5.7645544412       -3.1680969688       -0.0371651247
 H          4.6771361376       -3.1141627055       -1.4252837695
 C          3.7149052720       -2.7713110523        0.4539895108
 H          3.9959619041       -2.5973779295        1.4889513292
 H          3.3797595692       -3.8105673537        0.3941860821
 C          2.5166083887       -1.9053612381        0.0789753892
 H          1.6417779696       -2.2551397135        0.6395071909
 H          2.2669416248       -2.0745713129       -0.9743152231
 H          6.6792004544       -0.9116606904        0.8763656148
 H          6.2278673614        0.5635121941        0.0158230167
 H          5.1382953226        0.7454044307        2.0788227776
 H          4.6349465400       -0.9395521356        2.1152311805
 O          3.3462923504        1.7029597122        0.9787930923
 C          2.2487855570        2.3782357332        0.4903200861
 O          2.2829159693        3.6126431031        0.6733313618
 H         -1.5637426949        0.3072906174       -0.2569433550
 C         -1.8491238044        1.1503867589        0.3504789955
 C         -1.1187014787        2.3288828371        0.2818105336
 C         -1.4827984288        3.3913316115        1.1020796477
 C         -2.5606191659        3.2802126113        1.9617529123
 C         -3.3013099812        2.1133898052        2.0098042886
 C         -2.9384858237        1.0407274117        1.2020458984
 N         -3.6493444007       -0.1639078962        1.2591895223
 S         -3.8373214561       -1.1344651754       -0.0895973185
 O         -3.9234533918       -0.3575400518       -1.3037902206
 O         -5.0039944811       -1.9371690147        0.2230284050
 C         -2.4204927251       -2.2081091835       -0.1075736659
 C         -1.9975465006       -2.7595090696        1.0850401410
 C         -0.9456226610       -3.6598667357        1.0683500122
 C         -0.3427446898       -3.9959980771       -0.1343749710
 C         -0.7786909714       -3.4317432004       -1.3217071424
 C         -1.8288118207       -2.5287133469       -1.3110358556
 H         -2.1907585117       -2.0578461890       -2.2111951477
 H         -0.3007789875       -3.6845546662       -2.2545267821
 H          0.4764511242       -4.6981486594       -0.1457958852
 H         -0.5965345561       -4.0945550455        1.9918610727
 H         -2.4899886158       -2.4749792979        2.0003450819
 H         -4.4780750422       -0.1512265300        1.8350132567
 H         -4.1500636251        2.0278517564        2.6714095949
 H         -2.8329730096        4.1127477130        2.5928259862
 H         -0.9044452406        4.3035840323        1.0682973274
 C          0.0602251644        2.4618069039       -0.6526729933
 H          0.3932159544        3.5083257769       -0.6216925232
 C         -0.3261090796        2.1286639329       -2.0801147621
 C         -1.0882878359        3.1417515924       -2.8777199478
 C          0.3439594174        2.8490377786       -3.2091658631
 H          0.5648659777        2.3005404585       -4.1125439927
 H          1.0867677559        3.5923348745       -2.9569747340
 H         -1.3155869634        4.0845796790       -2.4029536473
 H         -1.8575004010        2.7925422119       -3.5495754586
 H         -0.5700454637        1.0857680178       -2.2322965577
 O          0.4600428983       -0.4672384636       -0.8575634065
