  62
        -98.94627563
 C         -2.5702587909       -0.0086148141       -0.4376623499
 C         -2.1966016976       -0.5838022947        0.8008516298
 C         -1.8857023619       -2.0180858203        0.7691617678
 C         -1.9552815857       -2.6924032359       -0.3931764043
 C         -1.7267979514       -4.1685842808       -0.5795823932
 C         -0.2528944377       -4.5666954502       -0.7296081512
 C          0.5661515274       -4.5089822522        0.5597919631
 H          0.0444597689       -5.0535750573        1.3476798485
 H          1.5060568676       -5.0300857272        0.3676466694
 C          0.8830599583       -3.0859735904        1.0380968153
 H          1.9348116525       -3.0191876918        1.3279967934
 H          0.7480427424       -2.3769797889        0.2172254963
 C          0.0643134801       -2.6088293398        2.2375945215
 H          0.3266977276       -3.1995309861        3.1191173089
 H          0.3430004813       -1.5690046047        2.4286650049
 C         -1.4559658110       -2.6752423915        2.0457640557
 H         -1.7918437413       -3.7126117649        2.0707133688
 H         -1.9268612879       -2.1331408868        2.8700067623
 H          0.2094907852       -3.9205109321       -1.4796534379
 H         -0.2287088533       -5.5914938377       -1.1078301490
 H         -2.1679573433       -4.7129428993        0.2562177936
 H         -2.2538974533       -4.4478210038       -1.4945821683
 O         -2.2936684563       -2.0956471180       -1.5677168113
 C         -2.5867774952       -0.7431904074       -1.6217056206
 O         -2.8570187508       -0.3204965657       -2.7659766756
 H         -0.3261855062        1.0236479893       -0.9548363835
 C         -0.4706330090        1.9079466028       -0.3516115327
 C         -1.7587088419        2.3001911400       -0.0127144414
 C         -1.9228234014        3.4485656674        0.7516363829
 C         -0.8194268826        4.1634797846        1.1844688637
 C          0.4622581442        3.7434935819        0.8801440322
 C          0.6365429897        2.6032239819        0.1043856441
 N          1.9263780876        2.1467208730       -0.2428011698
 S          2.2202141049        0.4962687931        0.0015957063
 O          1.5687843262       -0.2641431684       -1.0353307765
 O          1.9081899977        0.1442998512        1.3676923170
 C          3.9844196671        0.4528374926       -0.2551503274
 C          4.4597482478        0.6470366416       -1.5383311310
 C          5.8285431597        0.6436249206       -1.7532911638
 C          6.6944575561        0.4456877608       -0.6875777064
 C          6.2024534914        0.2487397565        0.5936242947
 C          4.8338824600        0.2538798515        0.8158495582
 H          4.4038132337        0.1022480782        1.7928592447
 H          6.8775804057        0.0918023070        1.4193237920
 H          7.7594249160        0.4427905965       -0.8579497104
 H          6.2142467861        0.7943736557       -2.7486188806
 H          3.7479322420        0.7879850548       -2.3350683254
 H          2.6466458620        2.6809034456        0.2282128286
 H          1.3215303330        4.2899634656        1.2392666165
 H         -0.9598521606        5.0515920780        1.7819457978
 H         -2.9141287436        3.7785136799        1.0165133177
 C         -2.9134485668        1.4675813736       -0.5157173855
 H         -3.0541479044        1.6907321729       -1.5843895977
 C         -4.2125949994        1.7412944314        0.2150927934
 C         -5.1342782028        2.8257205963       -0.2541871140
 C         -5.5047745625        1.3881231826       -0.4560786687
 H         -6.2989710904        0.9678629673        0.1422822351
 H         -5.4451263675        0.9770350078       -1.4536144440
 H         -5.6801238373        3.3936095261        0.4841359925
 H         -4.8354897882        3.3960018302       -1.1207520540
 H         -4.1340824584        1.5565119150        1.2804590032
 O         -2.1485322099        0.0616385315        1.8815141817
