  62
        -98.93949375
 C          0.9282595531        1.6786894864       -0.1425293677
 C          1.1661932724        0.3065546765       -0.3979342433
 C          2.2828594951       -0.3114434852        0.3410490541
 C          2.9522723383        0.4025917373        1.2597778896
 C          4.0716498831       -0.0447215869        2.1667704166
 C          5.1798748876       -0.9106981729        1.5507625461
 C          5.4916199573       -0.6164453493        0.0760489898
 H          5.0069212004        0.3122041645       -0.2298834351
 H          6.5681364098       -0.4748319538       -0.0363728831
 C          5.0654718947       -1.7486188092       -0.8616644744
 H          5.6253687313       -1.6594149769       -1.7956190187
 H          5.3406061824       -2.7019144178       -0.4052428209
 C          3.5810377541       -1.7765559913       -1.2240477089
 H          3.3917096093       -2.6886610556       -1.7944951833
 H          3.3438531202       -0.9333822454       -1.8779790160
 C          2.6077995709       -1.7284854618       -0.0346237506
 H          1.6626035981       -2.1752122445       -0.3530085489
 H          2.9898884059       -2.2909145909        0.8141866318
 H          6.0761992796       -0.7489332806        2.1520602520
 H          4.9187893809       -1.9629419959        1.6553409165
 H          4.5040987438        0.8786857940        2.5599732542
 H          3.6275916257       -0.5772109979        3.0133946795
 O          2.6499864180        1.7058337737        1.5228654716
 C          1.6570707775        2.3702176960        0.8278168112
 O          1.5214182825        3.5677789605        1.1553123606
 H         -1.4238671733        0.1892930267       -0.2503486905
 C         -1.9823119468        1.0487842177        0.0809335780
 C         -1.4800387028        2.3216383136       -0.1451585990
 C         -2.2185505826        3.4177811361        0.2844219577
 C         -3.4258499795        3.2386635950        0.9364047883
 C         -3.9062145031        1.9667098710        1.1919735726
 C         -3.1727439000        0.8652759061        0.7665295125
 N         -3.6177418668       -0.4440646600        1.0038513683
 S         -2.4984038889       -1.6320892327        1.3844550458
 O         -3.2649566684       -2.6278516012        2.1093293128
 O         -1.3624109919       -1.0894462356        2.0957776051
 C         -1.9996056420       -2.3469772833       -0.1669722920
 C         -2.7105183981       -2.1014465119       -1.3229586685
 C         -2.3043354132       -2.7142787132       -2.4977438408
 C         -1.2084055870       -3.5617866197       -2.4958836142
 C         -0.5106122430       -3.8043443363       -1.3237773117
 C         -0.9087319222       -3.1917434868       -0.1470220709
 H         -0.3870225085       -3.3401909084        0.7859744254
 H          0.3457885977       -4.4602816779       -1.3231933183
 H         -0.8910633719       -4.0315235156       -3.4136485829
 H         -2.8416535255       -2.5220285714       -3.4127386001
 H         -3.5521418139       -1.4289587083       -1.2969123197
 H         -4.4495585114       -0.5221774521        1.5707489170
 H         -4.8361957430        1.8252642165        1.7214599103
 H         -3.9909396149        4.0975645491        1.2655039608
 H         -1.8320793672        4.4132404010        0.1220747255
 C         -0.1502707730        2.4955018336       -0.8386145860
 H          0.1510087328        3.5460898520       -0.7239193123
 C         -0.2806910775        2.1908801080       -2.3187264536
 C         -0.8695479944        3.2268573899       -3.2261976357
 C          0.5942226352        2.9122686258       -3.2972283295
 H          0.9677583728        2.3683486053       -4.1515998108
 H          1.2918016024        3.6376533787       -2.9034058025
 H         -1.5050650202        2.9000330507       -4.0345516258
 H         -1.1633388725        4.1690096382       -2.7887857849
 H         -0.5052783913        1.1522921553       -2.5213714938
 O          0.4947842190       -0.3975445458       -1.1974959719
