  62
        -98.93647632
 C         -1.8670944465       -0.6489116342       -0.3503475235
 C         -2.9368818735       -0.9904714810        0.5117809389
 C         -4.2126875742       -0.2807029316        0.3087963316
 C         -4.2826029159        0.6737123219       -0.6364030914
 C         -5.4588539318        1.5310812560       -1.0298292062
 C         -6.2938597712        2.1245824077        0.1152418075
 C         -7.6822914717        1.4957264875        0.2452170250
 H         -8.3437110992        2.2092913959        0.7417111926
 H         -8.0815845202        1.3250442388       -0.7567821851
 C         -7.7325650641        0.1908270239        1.0380824846
 H         -7.5760209891        0.4057438672        2.0974257543
 H         -8.7400818464       -0.2192097924        0.9355810381
 C         -6.7230807015       -0.8753885832        0.6079377050
 H         -6.6452461615       -0.9115895268       -0.4780860411
 H         -7.1049261897       -1.8457134359        0.9323957705
 C         -5.3303464991       -0.6904165528        1.2287191421
 H         -5.3828886843        0.0208190121        2.0581501222
 H         -4.9947314562       -1.6357828727        1.6662265198
 H         -6.4243338732        3.1892110615       -0.0858517709
 H         -5.7491985356        2.0394148206        1.0543206793
 H         -6.1027646650        0.9509751349       -1.6957136164
 H         -5.0325370524        2.3355771169       -1.6335788849
 O         -3.2193604610        0.9862277054       -1.4301931326
 C         -1.9973688942        0.3443519142       -1.3196104649
 O         -1.1411874241        0.7457766436       -2.1311250802
 O         -2.8341782640       -1.8635709591        1.4147209571
 C         -0.5436976108       -1.3725059199       -0.1636916404
 C          0.4538817076       -0.4126245325        0.4348983359
 C          0.4954253149       -0.2372963313        1.8149103252
 C          1.3837808826        0.6536811998        2.3885915410
 C          2.2473801111        1.3910970067        1.5975789270
 C          2.2056696545        1.2295468743        0.2193923991
 C          1.3231694558        0.3248589895       -0.3545581176
 H          1.2905398142        0.2211114614       -1.4275253005
 N          3.0904655914        1.9716187211       -0.5891346040
 S          4.7198518703        1.7717454805       -0.2534585073
 O          5.0717878585        2.5616914892        0.8997718272
 O          5.4142676267        2.0949542052       -1.4796743623
 C          4.8765914407        0.0357800896        0.1260510018
 C          4.7344189134       -0.8692014399       -0.9072123947
 C          4.7726600524       -2.2238667354       -0.6217808148
 C          4.9433496016       -2.6482200543        0.6871384191
 C          5.0860348975       -1.7272343098        1.7129829692
 C          5.0500153456       -0.3704437618        1.4331865958
 H          5.1563892295        0.3784797722        2.2005044162
 H          5.2198206283       -2.0606183304        2.7294244411
 H          4.9658696926       -3.7039024948        0.9072108485
 H          4.6641442694       -2.9434583646       -1.4172904354
 H          4.6082978244       -0.5022786614       -1.9132979309
 H          2.9142091216        1.8552703877       -1.5767488519
 H          2.9494749264        2.0899834343        2.0230283839
 H          1.4051254423        0.7763525397        3.4607349650
 H         -0.1866404537       -0.8045340661        2.4324561991
 H         -0.7467296045       -2.1546547763        0.5797392863
 C         -0.0545446512       -2.0257138231       -1.4401982680
 C          1.1000615939       -2.9793173400       -1.3733320617
 C         -0.2807096158       -3.4915851134       -1.6497113260
 H         -0.5139303370       -3.8386249149       -2.6452761650
 H         -0.7910156391       -4.0352611203       -0.8684232764
 H          1.8165902750       -2.9753057319       -2.1801012528
 H          1.5307406529       -3.1700430422       -0.4021350710
 H         -0.1324942040       -1.3850137160       -2.3098445026
