  62
        -98.94314384
 C          2.5811281369        0.0784251395        0.3484073669
 C          2.6689668252        1.0895230576       -0.6439880575
 C          2.1009887179        2.3955604372       -0.3029239935
 C          1.5385110226        2.5768775092        0.9049535139
 C          0.8745991528        3.8350244969        1.3941964421
 C         -0.5824804006        3.9681691907        0.9294832178
 C         -0.7627779190        4.3576089844       -0.5388037427
 H         -1.8034221776        4.6648886083       -0.6606332395
 H         -0.1375647008        5.2223637140       -0.7654480426
 C         -0.4666886473        3.2265389232       -1.5335595016
 H         -0.5009377306        2.2658764953       -1.0137802581
 H         -1.2490823571        3.2036275549       -2.2964416236
 C          0.8672988280        3.3537930014       -2.2700030550
 H          0.8440513034        4.2314621857       -2.9209184283
 H          0.9934334239        2.4685337489       -2.8986269125
 C          2.0947052381        3.4615708995       -1.3571332361
 H          2.9885917838        3.3235473372       -1.9709422485
 H          2.1354928529        4.4481704422       -0.8956461257
 H         -1.0555437514        4.7335673075        1.5497401787
 H         -1.0927210859        3.0192388373        1.1170138542
 H          1.4460006552        4.7064835102        1.0724875876
 H          0.8883342455        3.7909448897        2.4854388206
 O          1.5244262759        1.6057713453        1.8529501320
 C          2.0008168199        0.3272543884        1.5928127410
 O          1.8654562748       -0.4518368149        2.5586754658
 O          3.2035371488        0.9020429054       -1.7711583597
 C          3.0224210773       -1.3100878367       -0.0838680600
 C          1.8524880887       -1.9866323353       -0.7634881307
 C          1.9889848382       -2.6002118922       -2.0028026723
 C          0.8870650752       -3.1337851979       -2.6483364161
 C         -0.3742739915       -3.0298752369       -2.0906244640
 C         -0.5183428726       -2.4258371416       -0.8462718954
 C          0.5966338948       -1.9479384603       -0.1759649955
 H          0.4640551723       -1.4988943168        0.7969091642
 N         -1.7778469545       -2.2706170670       -0.2474775904
 S         -2.0542810855       -0.8312183206        0.6037009803
 O         -1.3145171437        0.2546031268        0.0056775288
 O         -1.8327180416       -1.0813400532        2.0060526530
 C         -3.8012092057       -0.6080623421        0.3163915188
 C         -4.2189469554        0.2937744144       -0.6434784505
 C         -5.5770709148        0.4394125117       -0.8805202304
 C         -6.4884582900       -0.3179173192       -0.1603316378
 C         -6.0539541598       -1.2188240456        0.8009367392
 C         -4.6978860273       -1.3679402987        1.0442579438
 H         -4.3127306488       -2.0457482846        1.7882742903
 H         -6.7654612597       -1.8032444266        1.3615207294
 H         -7.5444504365       -0.2025711733       -0.3465945164
 H         -5.9172998467        1.1421402468       -1.6238996287
 H         -3.4724631195        0.8644604450       -1.1727055827
 H         -2.5443313857       -2.5007725396       -0.8649811293
 H         -1.2407332352       -3.4066582291       -2.6125163277
 H          1.0067636238       -3.6074766816       -3.6108234209
 H          2.9610668448       -2.6335940224       -2.4717272639
 H          3.8005824321       -1.1516516989       -0.8441644212
 C          3.5934556326       -2.1852608872        1.0111820238
 C          4.5391162551       -3.2879559382        0.6423828405
 C          5.0462148199       -2.0737131807        1.3594922285
 H          5.3317112480       -2.1618206804        2.3966485453
 H          5.6383556639       -1.3619411311        0.8029101570
 H          4.4783628809       -4.2181189656        1.1858414174
 H          4.7952169812       -3.4020803161       -0.3998701639
 H          2.9003920312       -2.3642656188        1.8228767575
