  62
        -98.93560569
 C         -1.1560927642       -1.7253050225       -0.2728696964
 C         -1.3683452987       -0.3427748724       -0.4827303293
 C         -2.5776879887        0.2445320445        0.1375434117
 C         -3.3850353216       -0.5410295839        0.8722355446
 C         -4.6731260698       -0.1717857311        1.5586693121
 C         -5.8504277893       -0.0399845151        0.5780813882
 C         -5.5299999185        0.7012284739       -0.7175110133
 H         -6.4032353111        0.6202871027       -1.3704667986
 H         -4.7021106899        0.1991573283       -1.2214851711
 C         -5.2029053655        2.1836970899       -0.5558173651
 H         -6.0562251308        2.6897137297       -0.0985288076
 H         -5.0705462248        2.5973291623       -1.5587926693
 C         -3.9509606982        2.5065349604        0.2620401633
 H         -4.1407730556        2.3950626698        1.3259165979
 H         -3.7201420978        3.5627045804        0.0969906872
 C         -2.7049666760        1.7229432882       -0.1387753559
 H         -1.8333670889        2.1846894460        0.3396606812
 H         -2.5378282094        1.8417096367       -1.2150151942
 H         -6.6739626510        0.4586881492        1.0919889303
 H         -6.1805291733       -1.0469790431        0.3110969031
 H         -4.8955976182       -0.9775589260        2.2616870986
 H         -4.5414041246        0.7405527863        2.1325744648
 O         -3.1329978979       -1.8692075291        1.0577375413
 C         -2.0332088240       -2.4878137241        0.5022118075
 O         -1.9451371445       -3.7064118331        0.7581518345
 H          1.2861392302       -0.2133541047       -0.0289208432
 C          1.7365472752       -1.1006451280        0.3881098263
 C          1.2224693068       -2.3500420446        0.0658520660
 C          1.8036791280       -3.4793140698        0.6315654944
 C          2.8750994871       -3.3617688779        1.4985404404
 C          3.4007229735       -2.1178570796        1.7968556887
 C          2.8283419176       -0.9825141550        1.2351173702
 N          3.3375759182        0.2974403406        1.5102645107
 S          3.6259777738        1.3182765611        0.2064689605
 O          3.8860331683        0.5613179469       -0.9953534265
 O          4.7045900555        2.1766164067        0.6565294161
 C          2.1652431313        2.3152299916        0.0383771378
 C          1.6737024175        2.9420848146        1.1664695684
 C          0.5861142109        3.7892501716        1.0381697889
 C          0.0182680604        3.9991838551       -0.2102174532
 C          0.5236748171        3.3605640206       -1.3308166512
 C          1.6083715933        2.5076503384       -1.2083067883
 H          2.0217541253        1.9797282936       -2.0522832646
 H          0.0730857777        3.5134278598       -2.2978782482
 H         -0.8265227765        4.6631964384       -0.3092407320
 H          0.1832638243        4.2823917451        1.9086993111
 H          2.1470590118        2.7580920150        2.1168855287
 H          4.1216783135        0.3046918745        2.1475517497
 H          4.2462721752       -2.0227087560        2.4617342652
 H          3.3118634795       -4.2463577260        1.9369150057
 H          1.3970019163       -4.4530408921        0.3998160367
 C          0.0318517124       -2.4807582242       -0.8476774723
 H         -0.2752594919       -3.5388695185       -0.8365763558
 C          0.3239258805       -2.1204422985       -2.2978342058
 C          1.5405607826       -1.3886185141       -2.7707009322
 C          1.3994326775       -2.8543531696       -3.0439756972
 H          1.2038869258       -3.1815036843       -4.0541804269
 H          2.0231885872       -3.5279013645       -2.4749093157
 H          2.2813521842       -1.0637441752       -2.0565906582
 H          1.4099778352       -0.6985771547       -3.5913985794
 H         -0.5901869305       -1.9190459801       -2.8482690600
 O         -0.6060536435        0.3929045166       -1.1595017899
