  62
        -98.93891780
 C          2.6541504326        1.0630118904        0.2884346115
 C          2.5159321978        0.2501577404       -0.8621658626
 C          3.1048214908       -1.0973222821       -0.7791635414
 C          3.7366432711       -1.4764557870        0.3447470446
 C          4.4334917748       -2.7837599612        0.6253873756
 C          3.6974756944       -4.0705159634        0.2217400340
 C          2.1640944345       -3.9900099098        0.2699777338
 H          1.7806307729       -4.8427636392        0.8338188720
 H          1.8462872247       -3.0874721634        0.7959713087
 C          1.5186430673       -4.0211304048       -1.1178597245
 H          2.0200656902       -4.7839767623       -1.7180569796
 H          0.4727766364       -4.3203566323       -1.0105284694
 C          1.5248662757       -2.6969351775       -1.8821304804
 H          0.8068270681       -2.0061447294       -1.4286466038
 H          1.1681877269       -2.8954836654       -2.8959123984
 C          2.8849392969       -1.9847165827       -1.9694735558
 H          3.6948115818       -2.6994824022       -2.0954838299
 H          2.8597198590       -1.3241637817       -2.8403167519
 H          4.0012459819       -4.3638463550       -0.7821323474
 H          4.0397800623       -4.8564615562        0.8967346914
 H          5.4108535833       -2.7619837002        0.1354678881
 H          4.6117655096       -2.7856783193        1.7031920404
 O          3.8513754498       -0.6566218369        1.4282827684
 C          3.2963465671        0.6124152625        1.4389464968
 O          3.4354353697        1.2266678936        2.5171937802
 H          0.3960699766        0.7654271328        1.5580569078
 C         -0.1489611336        1.3546297115        0.8287345742
 C          0.5371520558        2.3058923128        0.0828661697
 C         -0.1736165817        3.0550349181       -0.8443855540
 C         -1.5279538020        2.8351173000       -1.0316263821
 C         -2.2011405894        1.8740735178       -0.3003376231
 C         -1.5017413233        1.1278849459        0.6395270425
 N         -2.1798379893        0.1441250982        1.3903202169
 S         -2.8537606157       -1.1183791215        0.5008013002
 O         -2.9350189102       -2.2310610196        1.4231913882
 O         -2.1261942126       -1.3513235824       -0.7247469819
 C         -4.4976370494       -0.5368945195        0.1437585622
 C         -5.3206858481       -0.2260480119        1.2086161284
 C         -6.6024634997        0.2329694236        0.9511012317
 C         -7.0372696552        0.3700757418       -0.3590096884
 C         -6.1996759322        0.0502678054       -1.4166675749
 C         -4.9153940323       -0.4082253485       -1.1660888090
 H         -4.2254128939       -0.6618844962       -1.9551005651
 H         -6.5394399711        0.1574965637       -2.4342517599
 H         -8.0349615685        0.7287748560       -0.5569891622
 H         -7.2566609709        0.4829073810        1.7706972959
 H         -4.9432169416       -0.3506398312        2.2097919190
 H         -1.6144527644       -0.2396490255        2.1351128002
 H         -3.2531788456        1.6939503147       -0.4505204010
 H         -2.0657643789        3.4181533042       -1.7634862114
 H          0.3354943379        3.8007914978       -1.4322952581
 C          2.0225990582        2.4439188747        0.3170419535
 H          2.1760611603        2.8289309731        1.3359493137
 C          2.7133645546        3.3666043393       -0.6640984294
 C          2.7410751950        4.8442102704       -0.4168827502
 C          3.9899355905        4.0330031813       -0.2509391831
 H          4.7770091770        4.1375401234       -0.9824397645
 H          4.3482441021        3.8388110180        0.7498285391
 H          2.6742622939        5.5102092275       -1.2637720251
 H          2.2544509440        5.2112701287        0.4740393845
 H          2.6398625208        3.0158386829       -1.6868530966
 O          1.9360317888        0.6296269649       -1.9116151286
