  62
        -98.94519854
 C         -1.4890579208       -0.8225697193       -0.5408701905
 C         -2.6132047311       -1.0043248384        0.3068951892
 C         -3.3181186008        0.2085336120        0.7369049484
 C         -2.8553583003        1.4081391017        0.3414036279
 C         -3.4891514400        2.7270577920        0.6752767870
 C         -4.5075640995        3.1452797618       -0.3944623636
 C         -5.5042921098        2.0453685419       -0.7599538133
 H         -6.1922076994        2.4621354518       -1.4986748337
 H         -4.9679020499        1.2265130015       -1.2445839227
 C         -6.3033708403        1.4927204728        0.4284391068
 H         -6.2507466603        2.1889711133        1.2661779565
 H         -7.3530398303        1.4131454430        0.1380681766
 C         -5.8645428609        0.1039914229        0.8968074077
 H         -6.6245872412       -0.2793097464        1.5828206177
 H         -5.8233405109       -0.5749728175        0.0414944381
 C         -4.5171054511        0.0395905529        1.6273856981
 H         -4.5006913111        0.7732110933        2.4364875277
 H         -4.4238929716       -0.9576208469        2.0676552887
 H         -3.9630406492        3.4289035711       -1.2979666636
 H         -5.0464658694        4.0228616622       -0.0326775642
 H         -3.9749116403        2.6527458127        1.6465334769
 H         -2.7006669098        3.4797698318        0.7325880268
 O         -1.7714694200        1.5488165809       -0.4577438219
 C         -1.0562114803        0.4499940904       -0.9127121611
 O         -0.0909878299        0.7613687897       -1.6376517210
 H          1.3451345692       -0.5282329700       -0.2349192199
 C          1.3365416088       -1.4603763097        0.3041746506
 C          0.3364154085       -2.3898170895        0.0514488008
 C          0.3380886679       -3.5870383891        0.7562262515
 C          1.3106425476       -3.8398352590        1.7073028519
 C          2.2798462378       -2.8948505791        1.9863546917
 C          2.2879997384       -1.6919633195        1.2857344410
 N          3.2634245886       -0.7251225397        1.5598156708
 S          2.9609997092        0.9254144504        1.5044751398
 O          3.7512489091        1.4657573807        2.5939230897
 O          1.5481201893        1.2146808709        1.5418928892
 C          3.7181439598        1.4273252993       -0.0272878602
 C          5.0972412398        1.5288486389       -0.0400037999
 C          5.7353060503        1.8984350380       -1.2116611099
 C          4.9870774707        2.1587241477       -2.3504227203
 C          3.6058755807        2.0539650081       -2.3208273006
 C          2.9592916302        1.6850766290       -1.1497505606
 H          1.8843803602        1.5938683293       -1.1113569109
 H          3.0173175010        2.2538439878       -3.2021676009
 H          5.4815029311        2.4464430870       -3.2649347803
 H          6.8098500303        1.9825099277       -1.2349364097
 H          5.6373675495        1.3317769892        0.8710743404
 H          3.8742284183       -0.9544852694        2.3300821811
 H          3.0240274175       -3.0789432889        2.7464739220
 H          1.3026080171       -4.7728667887        2.2501582424
 H         -0.4420174522       -4.3106995290        0.5715912816
 C         -0.7516033011       -2.0865772997       -0.9527544896
 H         -1.4972123014       -2.8909665794       -0.8831864794
 C         -0.1979023907       -2.0697373307       -2.3626262695
 C          0.0596142591       -3.3743749611       -3.0534298687
 C         -1.0722449105       -2.4997393810       -3.5005327495
 H         -0.9851440800       -1.9771321415       -4.4410368998
 H         -2.0802668906       -2.8104738705       -3.2666507496
 H          0.9280023293       -3.4565139917       -3.6884632384
 H         -0.1821533013       -4.2804973007       -2.5188972983
 H          0.4920948797       -1.2574117710       -2.5465919697
 O         -3.0124722416       -2.1402169581        0.6825626797
