  62
        -98.94522496
 C         -1.8584746654       -1.2764346147       -0.0620826567
 C         -3.0130431167       -0.8170684158        0.6138985731
 C         -3.7056255170        0.3256836685        0.0022777185
 C         -3.2171069538        0.8608988916       -1.1317538523
 C         -3.7886427682        2.0614568578       -1.8280771949
 C         -3.1368503328        3.3584997175       -1.3282767481
 C         -3.0903342295        3.4788375463        0.1950461717
 H         -2.4292814266        2.7058937628        0.5949442077
 H         -2.6344538147        4.4426803929        0.4325906968
 C         -4.4596876200        3.3763273973        0.8816185284
 H         -5.2526742086        3.5515074799        0.1537532180
 H         -4.5328091786        4.1625754986        1.6360123137
 C         -4.7129860123        2.0475796750        1.5964093163
 H         -3.8759576176        1.8248194852        2.2635326443
 H         -5.6039188524        2.1617494554        2.2196175605
 C         -4.9431091548        0.8332010678        0.6877312885
 H         -5.2951739012        0.0109329417        1.3177220957
 H         -5.7215604832        1.0633384739       -0.0425467473
 H         -3.6872478800        4.2045804937       -1.7435003466
 H         -2.1127397263        3.4022907008       -1.7065379161
 H         -3.6009565911        1.9604745391       -2.8982734455
 H         -4.8632458283        2.0950994222       -1.6595349682
 O         -2.1049147986        0.3930446920       -1.7528609862
 C         -1.3965551784       -0.6875060693       -1.2396785363
 O         -0.3995879190       -1.0097642671       -1.9083493888
 H         -0.1533516084       -0.1167457195        1.4151795714
 C          0.6523154383       -0.8199881057        1.2419180651
 C          0.3533863672       -2.0894627840        0.7640122304
 C          1.4019787777       -2.9760260497        0.5517468971
 C          2.7085188653       -2.5964700805        0.8079925912
 C          3.0016346512       -1.3268745278        1.2695882892
 C          1.9612086031       -0.4305746818        1.4796005437
 N          2.2500390089        0.8747365275        1.9132481002
 S          3.5151883762        1.6739176411        1.1587467787
 O          4.7511303510        1.3451480731        1.8256645808
 O          3.1458068746        3.0726571773        1.1843057047
 C          3.5627460283        1.0621568167       -0.5168785763
 C          4.7464184307        0.5642871707       -1.0230479474
 C          4.7666057184        0.0722468126       -2.3179743470
 C          3.6059262494        0.0756809186       -3.0760375476
 C          2.4250590855        0.5820018712       -2.5552476533
 C          2.4032533906        1.0857242799       -1.2655459565
 H          1.4930746378        1.4793407745       -0.8406817719
 H          1.5123770301        0.5610388936       -3.1285333878
 H          3.6167502994       -0.3214566038       -4.0787462502
 H          5.6830900110       -0.3205747379       -2.7279699255
 H          5.6204254237        0.5660610308       -0.3920135766
 H          1.4390683237        1.4715704210        1.9834445828
 H          4.0134141783       -1.0137463707        1.4708886963
 H          3.5111886177       -3.2975619831        0.6393043859
 H          1.1960636257       -3.9667298839        0.1816919085
 C         -1.0894842284       -2.4526371013        0.5090240301
 H         -1.5639282013       -2.6699204239        1.4783207998
 C         -1.2489399255       -3.6627200716       -0.3896561974
 C         -1.2855785824       -5.0441781827        0.1905015989
 C         -2.5385664730       -4.4247121684       -0.3489563361
 H         -2.9461487805       -4.8005294289       -1.2754038065
 H         -3.2887203785       -4.0895496108        0.3526239522
 H         -0.8339239007       -5.8501389798       -0.3680976962
 H         -1.1913057673       -5.1412929255        1.2615692130
 H         -0.7801496442       -3.5237809398       -1.3573951175
 O         -3.4419478294       -1.3345178885        1.6812643747
