  62
        -98.94797276
 C         -0.7773632271       -1.2090382393        0.5786382514
 C         -1.2208070981       -0.7641581386       -0.6900563535
 C         -2.1531828575        0.3713243776       -0.6769187153
 C         -2.4916885878        0.9332917583        0.4975789784
 C         -3.5251412200        2.0086729330        0.6637440752
 C         -4.9139874373        1.4000773929        0.9076069536
 C         -5.3004838752        0.3173225696       -0.1002142849
 H         -4.6414189908       -0.5440579396        0.0307223478
 H         -6.3115276480       -0.0123859271        0.1489629997
 C         -5.2565162645        0.7698819525       -1.5665635580
 H         -6.1586532337        0.4149817640       -2.0693494016
 H         -5.2647771251        1.8590077487       -1.6188162475
 C         -4.0638373241        0.2323035778       -2.3597556115
 H         -4.2409084288        0.4347110294       -3.4193534561
 H         -4.0043150869       -0.8523861594       -2.2400500863
 C         -2.6983199460        0.8316159721       -1.9991012058
 H         -1.9791811656        0.4947773131       -2.7511289111
 H         -2.7525943269        1.9206512286       -2.0355842696
 H         -5.6520618116        2.2038280784        0.8804092391
 H         -4.9295899520        0.9585763829        1.9068384952
 H         -3.5471796169        2.6281959581       -0.2296867279
 H         -3.2549383998        2.6237188806        1.5227846624
 O         -1.9742751752        0.5331338864        1.6879158249
 C         -1.1182667049       -0.5532463831        1.7601822706
 O         -0.7339327567       -0.8314413560        2.9155692112
 O         -0.8715886239       -1.2981715207       -1.7744887013
 C          0.1119689962       -2.4343132213        0.6753199720
 C          1.3478152726       -2.2682271266       -0.1742092573
 C          1.8799667361       -3.2883529521       -0.9523914613
 C          3.0255451818       -3.0724163505       -1.6983792040
 C          3.6649632520       -1.8470937456       -1.6790565501
 C          3.1431795033       -0.8209649540       -0.8982508718
 C          1.9974480637       -1.0409478464       -0.1521253833
 H          1.5986403386       -0.2467901625        0.4625717434
 N          3.7430690645        0.4435375623       -0.8862986587
 S          3.5525280213        1.4994785779        0.3847116027
 O          4.5545365771        2.5182799498        0.1495199559
 O          3.6314426140        0.8306529536        1.6630273781
 C          1.9437073773        2.2228512539        0.1500520451
 C          1.5344260303        2.5490131390       -1.1272500963
 C          0.3149049779        3.1837383918       -1.2963830163
 C         -0.4643464178        3.4903608662       -0.1919884579
 C         -0.0426586834        3.1504851540        1.0835712152
 C          1.1720213889        2.5081769849        1.2585292911
 H          1.5291263315        2.2134648858        2.2334225619
 H         -0.6518646786        3.3780302455        1.9437894950
 H         -1.4046519496        4.0011536779       -0.3229437315
 H         -0.0216448112        3.4406418643       -2.2877791304
 H          2.1673606912        2.3015336873       -1.9630501224
 H          4.6337353282        0.5228432430       -1.3524011879
 H          4.5555723326       -1.6788631216       -2.2647812142
 H          3.4272090076       -3.8712700126       -2.3031703206
 H          1.3963397472       -4.2509785655       -0.9792551189
 H          0.4313108176       -2.4996358744        1.7266925893
 C         -0.6907860767       -3.6733278127        0.3301156281
 C         -0.3844369753       -4.9861043147        0.9840477363
 C         -1.6268254798       -4.2353934101        1.3559496789
 H         -2.5815489797       -4.6200347679        1.0297318050
 H         -1.6604560169       -3.7416892144        2.3167054624
 H         -0.4896962897       -5.8899719137        0.4030156217
 H          0.4231557905       -5.0121547180        1.7001527469
 H         -1.0195651244       -3.6785315148       -0.7030591988
