  62
        -98.93489910
 C         -2.7047815004       -0.1383910496       -0.2155385201
 C         -2.2543550807       -0.9443632593        0.8565817903
 C         -1.7435321213       -2.2876599397        0.5029918010
 C         -1.7122114214       -2.6734090603       -0.7845713288
 C         -1.2758127320       -3.9673530109       -1.4418546381
 C         -0.5966425824       -5.0634646207       -0.6271704876
 C          0.8335665077       -4.7355928611       -0.1942126878
 H          1.1619613374       -5.4942852109        0.5193201426
 H          1.4805778277       -4.8005220818       -1.0725404477
 C          1.0424594183       -3.3532530109        0.4202851615
 H          2.1124110584       -3.2260006912        0.6120947715
 H          0.7614237286       -2.5748272711       -0.2928421789
 C          0.3126492584       -3.0979704999        1.7367158414
 H          0.6203815381       -3.8372018396        2.4802604118
 H          0.6241899188       -2.1104744098        2.0900619209
 C         -1.2208564716       -3.1012554693        1.6528269714
 H         -1.6058411314       -2.6266338187        2.5607956412
 H         -1.6108753020       -4.1160009492        1.6221563720
 H         -1.2117265825       -5.3260794100        0.2285972326
 H         -0.5516184628       -5.9483985011       -1.2677557271
 H         -2.1818045822       -4.3815429507       -1.8981163679
 H         -0.6207403819       -3.6755265315       -2.2692569983
 O         -2.1702454111       -1.8628979607       -1.7854524992
 C         -2.6328271606       -0.5876020903       -1.5349022998
 O         -2.9739324503        0.0428792993       -2.5577465302
 O         -2.2814945506       -0.5951249787        2.0648135402
 C         -3.1608687898        1.3060069206       -0.0703387708
 C         -2.0027256094        2.2095451000       -0.4161730913
 C         -2.1648913090        3.3209951696       -1.2342758418
 C         -1.0752521087        4.0984670090       -1.5860694622
 C          0.1961483912        3.7663255587       -1.1546286121
 C          0.3673104407        2.6578816690       -0.3325652015
 C         -0.7323236796        1.9069462497        0.0514544589
 H         -0.5833612399        1.0527347500        0.6949389393
 N          1.6395226606        2.2728980687        0.1220631787
 S          1.9272490599        0.6058653187        0.2366519895
 O          1.3220779896       -0.0771426816       -0.8839033301
 O          1.5511154198        0.1677472595        1.5556751097
 C          3.7052495299        0.5800217879        0.0949698695
 C          4.2882421398        0.2804140770       -1.1213560404
 C          5.6704331498        0.3036376364       -1.2262352804
 C          6.4412893099        0.6282126167       -0.1201227906
 C          5.8417638401        0.9245565775        1.0951899593
 C          4.4607896800        0.9008851381        1.2072980893
 H          3.9495217001        1.1138949688        2.1315732992
 H          6.4440760402        1.1730132877        1.9539803792
 H          7.5162450299        0.6474268962       -0.2051362206
 H          6.1389219997        0.0692871057       -2.1684742203
 H          3.6475874997        0.0281871769       -1.9513181902
 H          2.3899874008        2.7515738582       -0.3577148316
 H          1.0505148414        4.3533528282       -1.4556624424
 H         -1.2137018383        4.9577449487       -2.2245449527
 H         -3.1469828989        3.5569522898       -1.6170247319
 H         -3.9321661198        1.4548933205       -0.8446412009
 C         -3.7939924497        1.6378022216        1.2711257190
 C         -3.0817438593        2.4037607418        2.3407878186
 C         -4.1989598591        3.0490728019        1.5805663083
 H         -5.1387777990        3.2153369225        2.0846267383
 H         -3.9376974388        3.8125686614        0.8637180779
 H         -3.2465508894        2.1026211824        3.3638358188
 H         -2.0710669092        2.7276617313        2.1442531085
 H         -4.4630676300        0.8533180020        1.6073753195
