  62
        -98.93708859
 C         -1.6776106423       -1.7400591965        0.1054529321
 C         -1.5887211816       -0.4386380408       -0.4391377680
 C         -2.7513606833        0.4462340482       -0.2204404043
 C         -3.8153253577       -0.0260596754        0.4532831256
 C         -5.1100859429        0.6733482716        0.7807445969
 C         -5.7679480340        1.4535477637       -0.3683145478
 C         -5.7285478280        2.9693100630       -0.1712610213
 H         -6.5351414665        3.4194348810       -0.7543802518
 H         -5.9255863379        3.1891213613        0.8800613781
 C         -4.4226076371        3.6393963627       -0.5934865728
 H         -4.3517481316        3.6337085894       -1.6834022819
 H         -4.4717874744        4.6840914571       -0.2772855687
 C         -3.1467226158        3.0145366054       -0.0238367851
 H         -3.2891393271        2.7308100709        1.0177474622
 H         -2.3719733846        3.7834568115       -0.0413027788
 C         -2.6280367023        1.8160949025       -0.8310421754
 H         -3.1007318733        1.8009428534       -1.8179857187
 H         -1.5550997392        1.9327124368       -1.0130097467
 H         -5.3000557421        1.1834943910       -1.3140798591
 H         -6.8135369191        1.1467209376       -0.4262742317
 H         -5.7807443430       -0.1168912624        1.1254811938
 H         -4.9454347485        1.3359299381        1.6335037218
 O         -3.8463717066       -1.2862443415        0.9764254167
 C         -2.7921176022       -2.1656704669        0.8267087250
 O         -2.9622951099       -3.2762085375        1.3694258479
 H          1.8036431210       -1.9199993931       -1.3018542665
 C          1.8110914262       -1.7664364242       -0.2346667632
 C          0.7156784068       -2.1371778485        0.5268897605
 C          0.7517335779       -1.9114682646        1.9005577033
 C          1.8579231076       -1.3346374130        2.4940483724
 C          2.9487840712       -0.9592347404        1.7287788879
 C          2.9170219367       -1.1695258414        0.3574635697
 N          4.0125324713       -0.7728281761       -0.4317910703
 S          4.5909858683        0.7862617510       -0.2321742924
 O          5.3115476113        1.0771589385       -1.4514644130
 O          5.3596439406        0.8556586214        0.9858709906
 C          3.1465717472        1.8227775205       -0.1016731866
 C          2.7506509389        2.2964563857        1.1322294633
 C          1.6051219279        3.0709476716        1.2139452596
 C          0.8825567380        3.3575568837        0.0669124853
 C          1.2934916889        2.8749970451       -1.1654818749
 C          2.4340255534        2.0951237941       -1.2519853554
 H          2.7861657366        1.7075694167       -2.1943699086
 H          0.7266266225        3.0961214095       -2.0555961882
 H         -0.0077359499        3.9630800547        0.1346579407
 H          1.2785207995        3.4467772889        2.1703872101
 H          3.3461875390        2.0606144223        1.9987531440
 H          3.8913556424       -0.9746102641       -1.4139880527
 H          3.8202669020       -0.5057445927        2.1721356443
 H          1.8726442032       -1.1724671762        3.5612413428
 H         -0.1074098826       -2.1919937434        2.4951311729
 C         -0.5361319776       -2.7266929417       -0.0732404683
 H         -0.8103274532       -3.6162673964        0.5105500134
 C         -0.4001631599       -3.1226740801       -1.5283741427
 C          0.3146690125       -4.3882877486       -1.8928310786
 C         -1.1744526997       -4.2997959124       -2.0366082979
 H         -1.5954833203       -4.2502634620       -3.0296831564
 H         -1.7921387224       -4.8324064315       -1.3281839397
 H          0.7119581395       -4.9862109046       -1.0866074077
 H          0.9155853843       -4.4043913584       -2.7896021990
 H         -0.3034919924       -2.2705915743       -2.1911243113
 O         -0.5911475300       -0.0261974703       -1.0862785732
