  62
        -98.93593157
 C         -2.5024189671       -1.0315035897        0.5773944307
 C         -2.5080163859        0.2442824471        1.1988840060
 C         -3.7041123706        1.0665274645        0.9899243595
 C         -4.7301095968        0.5759527784        0.2715505725
 C         -6.0306306343        1.2777409699       -0.0114981129
 C         -5.9737141333        2.2367311615       -1.2084361099
 C         -5.1942209982        3.5303407776       -0.9688979452
 H         -5.5591659929        4.0106887036       -0.0606051088
 H         -5.4171308882        4.1981636322       -1.8032980306
 C         -3.6726380971        3.3460620819       -0.8791232337
 H         -3.1759811669        4.1067646508       -1.4856928789
 H         -3.3956103312        2.3750096844       -1.2965227622
 C         -3.1024526785        3.4540851548        0.5354690170
 H         -3.2528354220        4.4671299997        0.9155933368
 H         -2.0255282789        3.2693287180        0.4867086804
 C         -3.7072122192        2.4616348044        1.5373232698
 H         -4.7197354731        2.7647076824        1.8036456503
 H         -3.0900141304        2.4659153324        2.4392847026
 H         -7.0026612541        2.5001526803       -1.4635138614
 H         -5.5445616729        1.7057841199       -2.0611331174
 H         -6.3537689949        1.8209817382        0.8768783395
 H         -6.7632768207        0.4978347222       -0.2293569250
 O         -4.7040175069       -0.6648401285       -0.2782401316
 C         -3.5881996203       -1.4890431846       -0.1709721546
 O         -3.7139395827       -2.5716328471       -0.7705776917
 O         -1.5571903800        0.6712480437        1.9096427667
 C         -1.2520060749       -1.8717984707        0.7655936849
 C         -0.2787092782       -1.6374147572       -0.3619140674
 C         -0.6633907391       -1.7913956576       -1.6910620078
 C          0.2414694173       -1.5635777289       -2.7112105081
 C          1.5377075888       -1.1694597007       -2.4290662118
 C          1.9322405852       -1.0120871815       -1.1056421694
 C          1.0239525662       -1.2508808444       -0.0826986288
 H          1.3372024766       -1.1066459250        0.9404757345
 N          3.2538776436       -0.6463260745       -0.7949585632
 S          3.5156805910        0.4206388110        0.4903859756
 O          3.4231332037       -0.3130872991        1.7268591056
 O          2.6611084534        1.5785165776        0.3538470050
 C          5.2152726821        0.8657034262        0.1848728815
 C          6.2097012361       -0.0118376312        0.5740457839
 C          7.5308252683        0.3154040349        0.3135037636
 C          7.8340627363        1.5072936976       -0.3280878746
 C          6.8255763408        2.3788687999       -0.7106017505
 C          5.5018504252        2.0569193905       -0.4544221655
 H          4.6850160541        2.7068130263       -0.7249626748
 H          7.0643378372        3.3063008414       -1.2058115877
 H          8.8632086661        1.7601025190       -0.5286483222
 H          8.3179767925       -0.3580866471        0.6117925640
 H          5.9264260647       -0.9210353833        1.0780625612
 H          3.7706962643       -0.3507551012       -1.6129485051
 H          2.2399240980       -0.9854600143       -3.2281239822
 H         -0.0682148703       -1.6871108467       -3.7381743077
 H         -1.6767638075       -2.0915851433       -1.9112467651
 H         -0.7865316060       -1.4744446634        1.6826345377
 C         -1.5428707009       -3.3463310179        1.0100124670
 C         -1.1706678830       -4.4383368143        0.0569167265
 C         -0.4146937142       -4.2791260498        1.3394554074
 H         -0.5561159455       -5.0078548072        2.1231328731
 H          0.5867312061       -3.8776133981        1.2840294682
 H         -1.8577283474       -5.2644117946       -0.0439663223
 H         -0.6759752560       -4.1696448336       -0.8626603326
 H         -2.4670705837       -3.4878564618        1.5612314583
