  62
        -98.93908537
 C         -2.5734856318       -0.6566236011        0.2317470616
 C         -2.9806126147        0.4499518135        1.0186990801
 C         -3.0708583433        1.7433295727        0.3301657102
 C         -2.7386940069        1.8176083803       -0.9712378913
 C         -2.7355947247        3.0781758150       -1.7855150585
 C         -1.3588388103        3.7557240443       -1.7564969461
 C         -0.7798581865        3.9259236468       -0.3518778407
 H         -0.5411713489        2.9390816328        0.0533876302
 H          0.1687522994        4.4570342404       -0.4578082158
 C         -1.6873414164        4.6861417619        0.6257684453
 H         -1.0782235477        5.4045502350        1.1782608653
 H         -2.4343261511        5.2538896727        0.0698445688
 C         -2.3876393596        3.8069516752        1.6635749695
 H         -1.6523579870        3.1601218603        2.1492469689
 H         -2.8092835279        4.4594099378        2.4328208795
 C         -3.5277535512        2.9272764288        1.1354143004
 H         -4.2273983054        3.5369935939        0.5603882272
 H         -4.0576103300        2.5159177295        1.9995524558
 H         -0.6596781259        3.1473986575       -2.3357931312
 H         -1.4449096984        4.7314457850       -2.2387641061
 H         -2.9808301959        2.8205988957       -2.8173754756
 H         -3.4947048287        3.7558853425       -1.3991684057
 O         -2.3231980159        0.7438367631       -1.6883767996
 C         -2.1985461317       -0.5107292479       -1.1059075993
 O         -1.7632337598       -1.3823869707       -1.8810452704
 O         -3.2488515662        0.3599669881        2.2475787493
 C         -2.4156531798       -1.9971050394        0.9314241344
 C         -1.0395753933       -2.5355784248        0.6328174758
 C         -0.7894382360       -3.7496508720        0.0088203018
 C          0.5068326510       -4.1253655518       -0.3018809091
 C          1.5769130112       -3.3024360822       -0.0016851823
 C          1.3362215459       -2.0953341337        0.6376678104
 C          0.0426370184       -1.7272590999        0.9599036892
 H         -0.1383779154       -0.7705553431        1.4377331799
 N          2.4283981387       -1.2222306171        0.9066188563
 S          2.7650885193       -0.2302047430       -0.4272241772
 O          1.8525097951        0.8951971648       -0.4447570317
 O          2.8103116654       -1.0526426394       -1.6081063894
 C          4.4094602091        0.3270975835       -0.0201292125
 C          5.4477528061       -0.5752743631       -0.1484591215
 C          6.7289781988       -0.1762633149        0.1955736547
 C          6.9492104711        1.1116239356        0.6616848481
 C          5.8971426595        2.0060083653        0.7846817604
 C          4.6123788171        1.6119113865        0.4432080426
 H          3.7650411639        2.2747317549        0.5175081638
 H          6.0708461220        3.0071703282        1.1451363463
 H          7.9473417696        1.4206682746        0.9291717032
 H          7.5497026702       -0.8686811546        0.0999526524
 H          5.2283182061       -1.5614956757       -0.5221172268
 H          2.2092148627       -0.5997931431        1.6755686555
 H          2.5858258322       -3.5672645969       -0.2715643956
 H          0.6824607784       -5.0656516879       -0.8021396738
 H         -1.6133602231       -4.3866262732       -0.2686831841
 H         -2.4573454481       -1.7462865378        2.0051856143
 C         -3.5359906282       -2.9930164684        0.6805764266
 C         -4.9183904874       -2.5249525097        0.3393075802
 C         -4.1004151923       -3.2530181643       -0.6826514828
 H         -4.3807853474       -4.2658255058       -0.9330822162
 H         -3.6885768578       -2.6968224736       -1.5095818884
 H         -5.7587709671       -3.0337001788        0.7870508387
 H         -5.0670876370       -1.4625018412        0.2102424575
 H         -3.4705480054       -3.8466045255        1.3484994094
