  62
        -98.93869801
 C         -2.5656113398       -1.3661759097        0.1539591606
 C         -2.5160193996       -0.3033945402       -0.7774160599
 C         -3.5429116794        0.7467207701       -0.6342484303
 C         -4.4586986394        0.6522640608        0.3475617997
 C         -5.6423683391        1.5296460012        0.6984283994
 C         -5.7803392188        2.9296555810        0.1064751287
 C         -4.7296035986        3.9314487510        0.5845453282
 H         -4.8568218484        4.8573475907        0.0195689378
 H         -4.9173774685        4.1556302815        1.6375278081
 C         -3.2780653187        3.4728814406        0.4656854884
 H         -2.6400394885        4.2732445806        0.8504695680
 H         -3.1135523089        2.6006388708        1.1019336788
 C         -2.8065180988        3.1481031998       -0.9504592815
 H         -2.9882556886        4.0039114796       -1.6038965318
 H         -1.7251903389        2.9851160396       -0.9074414614
 C         -3.4389138491        1.9000077897       -1.5901922009
 H         -4.4078579191        2.1279099497       -2.0278935109
 H         -2.7823077892        1.5694718892       -2.4005227107
 H         -6.7587386487        3.3044287414        0.4189410686
 H         -5.7944970589        2.8804711205       -0.9782465613
 H         -6.5307930693        0.9496916513        0.4250087597
 H         -5.6460393991        1.6010957017        1.7906114693
 O         -4.4659673696       -0.3959156288        1.2226137002
 C         -3.5253706898       -1.4060246090        1.1662605507
 O         -3.6493601700       -2.2724242386        2.0544067311
 H          0.4896282701       -1.6562872812       -1.5149534393
 C          0.7149801001       -1.5178163607       -0.4696967294
 C         -0.2008214899       -1.9136122101        0.4916516908
 C          0.1023280602       -1.6927639196        1.8325223207
 C          1.2937260903       -1.0947631697        2.1969124104
 C          2.2025860404       -0.6926499403        1.2328482302
 C          1.9011871703       -0.8926174909       -0.1068169297
 N          2.8094193404       -0.4755210515       -1.0951543999
 S          3.4585465507        1.0678627484       -0.9737091907
 O          2.5712605709        1.9762636789       -0.2846278611
 O          3.8291873808        1.4297207377       -2.3247979508
 C          4.9429816207        0.8200042785       -0.0197046906
 C          5.8310494904       -0.1522172019       -0.4368487202
 C          6.9949043804       -0.3511473218        0.2883018399
 C          7.2522791106        0.4235793086        1.4096135095
 C          6.3531446309        1.3986650590        1.8130007391
 C          5.1860172109        1.6014590990        1.0927645990
 H          4.4545861411        2.3429441692        1.3729948387
 H          6.5547574910        2.0006358394        2.6845065188
 H          8.1587131406        0.2665606387        1.9726404896
 H          7.6962292402       -1.1088348721       -0.0220100498
 H          5.5951207603       -0.7306737322       -1.3142426899
 H          2.4803275503       -0.6463291119       -2.0349785699
 H          3.1268071805       -0.2119688304        1.5091563499
 H          1.5171386004       -0.9345472492        3.2408331503
 H         -0.6188804399       -1.9840852790        2.5839384408
 C         -1.5456120401       -2.4942076300        0.1286807511
 H         -1.8451670102       -3.1861056195        0.9269237214
 C         -1.5609770103       -3.2374234906       -1.1906389086
 C         -0.8917341406       -4.5745987608       -1.2860634480
 C         -2.3868974206       -4.4803435804       -1.3192702080
 H         -2.8959339906       -4.6648394707       -2.2534605079
 H         -2.9406194106       -4.8040308999       -0.4500501078
 H         -0.3724540807       -4.8286344313       -2.1974593079
 H         -0.4283411406       -4.9627391205       -0.3917504178
 H         -1.5184882202       -2.5841571210       -2.0531990089
 O         -1.6686139996       -0.2268511308       -1.7065809399
