  62
        -98.93324672
 C          2.3062730898        0.8809275611        0.6341811489
 C          2.5957310795        0.2869292108       -0.6163338610
 C          3.1592015295       -1.0781526492       -0.5799327808
 C          3.2966328699       -1.6997157789        0.6031342793
 C          3.7936180600       -3.0955184488        0.8635613795
 C          2.6252602500       -4.0956631588        0.8979163101
 C          2.2507522296       -4.6930821792       -0.4573657997
 H          3.0455889895       -5.3667099693       -0.7847996898
 H          1.3500080097       -5.2929776392       -0.3090957093
 C          1.9837561993       -3.6716941995       -1.5655924599
 H          1.3831094294       -2.8499047594       -1.1693031099
 H          1.3875044290       -4.1624736497       -2.3373030396
 C          3.2690234091       -3.1230991996       -2.2026554704
 H          4.1153979092       -3.7301820095       -1.8824459805
 H          3.2073485887       -3.2251965599       -3.2881567903
 C          3.5546755691       -1.6435539995       -1.9175514508
 H          4.6223831391       -1.4511368095       -2.0703785012
 H          3.0196925089       -1.0247210197       -2.6452240808
 H          1.7576937501       -3.5857233388        1.3263183902
 H          2.8862799102       -4.9160841987        1.5696844202
 H          4.5377253098       -3.3844193590        0.1273060193
 H          4.2636615403       -3.0756001486        1.8490967993
 O          2.9296652802       -1.1185099186        1.7809064092
 C          2.4309415302        0.1686478714        1.8281415491
 O          2.1384261205        0.5636489716        2.9760813291
 H         -0.4142929902        0.7587624210        0.5578678098
 C         -0.4478176804        1.5577570708       -0.1712301604
 C          0.6075774595        2.4589822408       -0.2467177009
 C          0.5507599592        3.4715405806       -1.1946678212
 C         -0.5398690210        3.5743932304       -2.0409339209
 C         -1.5952932910        2.6868733004       -1.9512339403
 C         -1.5425548507        1.6616566406       -1.0119750201
 N         -2.5814975206        0.7206579806       -0.9195186196
 S         -2.9052023902        0.0094904910        0.5736157507
 O         -2.8810045399        1.0083202712        1.6189899105
 O         -2.0302701501       -1.1244518590        0.7480691807
 C         -4.5785897102       -0.5475678691        0.3082994913
 C         -4.7948219604       -1.7530404293       -0.3320178183
 C         -6.0982156905       -2.1628503994       -0.5651991178
 C         -7.1574028904       -1.3652054493       -0.1580949777
 C         -6.9249707902       -0.1589308891        0.4854246119
 C         -5.6241147101        0.2571840910        0.7208791715
 H         -5.3940362400        1.1816015111        1.2257830012
 H         -7.7498084101        0.4575113409        0.8045176720
 H         -8.1703901304       -1.6871568193       -0.3407349373
 H         -6.2825854706       -3.1016209595       -1.0620054275
 H         -3.9405814205       -2.3424992893       -0.6221453984
 H         -3.4229839508        1.0077620705       -1.3999463794
 H         -2.4466327812        2.7729369302       -2.6090871401
 H         -0.5699355612        4.3626355602       -2.7779212810
 H          1.3681567892        4.1675844306       -1.2855879316
 C          1.7387767598        2.2853605611        0.7375472288
 H          1.2978082101        2.3354003813        1.7484973589
 C          2.7827652498        3.3899831011        0.6666841382
 C          4.2015806099        3.1385279712        1.0801732878
 C          3.8754155695        3.3995951809       -0.3580802321
 H          4.1686363194        4.3485025108       -0.7829498925
 H          3.9121565393        2.5772358407       -1.0541244619
 H          4.4652712400        2.1322388013        1.3729573780
 H          4.7141067501        3.9048234114        1.6422088075
 H          2.3679191299        4.3534712512        0.9472418581
 O          2.4041519991        0.8578744205       -1.7213840511
