  62
        -98.94834159
 C         -0.8417825188       -1.3114582337        0.0583335071
 C         -1.7314973265       -0.9800664078        1.1060587540
 C         -2.5065137770        0.2536451172        0.9229944534
 C         -2.3078233475        0.9969668198       -0.1811506662
 C         -3.0906609356        2.2275770916       -0.5341806690
 C         -4.3284819736        1.8759024129       -1.3722692285
 C         -5.1749347479        0.7462605266       -0.7861535423
 H         -6.0339597460        0.6066576501       -1.4459052620
 H         -4.5978376368       -0.1808996465       -0.8085584691
 C         -5.6665017594        1.0000020503        0.6456294951
 H         -6.7216853387        0.7259699339        0.7091044950
 H         -5.5930858988        2.0624097747        0.8808244623
 C         -4.9321211468        0.1935409121        1.7181216503
 H         -5.4882805283        0.2850064992        2.6550230522
 H         -4.9272670067       -0.8642079070        1.4429071506
 C         -3.4866220113        0.6226755845        2.0007831850
 H         -3.4522815760        1.6957002229        2.2017593440
 H         -3.1530203592        0.0972249568        2.9009177868
 H         -3.9959126609        1.5723900013       -2.3673179741
 H         -4.9404236760        2.7737120560       -1.4761997954
 H         -3.3885295860        2.7382888741        0.3795087488
 H         -2.4474903362        2.8865398639       -1.1175489017
 O         -1.4039743142        0.6748682579       -1.1406327628
 C         -0.6520432783       -0.4870993745       -1.0509106433
 O          0.1308398483       -0.6691096708       -2.0009519035
 H          1.2836396651       -0.4969542139        1.1769941709
 C          1.9490349250       -1.1590825657        0.6422492219
 C          1.4445105771       -2.3045021993        0.0404303014
 C          2.3269835650       -3.1497964227       -0.6214574512
 C          3.6747159512       -2.8427811245       -0.6889067054
 C          4.1684475229       -1.6870403664       -0.1128511353
 C          3.2936094272       -0.8379325690        0.5570185083
 N          3.7603915097        0.3440643567        1.1512986746
 S          2.8010139242        1.6903580683        1.3201330539
 O          3.7408114815        2.7504970140        1.6255006511
 O          1.7808777581        1.4666010373        2.3162083722
 C          2.0376192326        2.0609714769       -0.2512239921
 C          0.9836983980        2.9525246996       -0.2164911221
 C          0.4082572910        3.3633884381       -1.4065543474
 C          0.8810015134        2.8631436218       -2.6091592666
 C          1.9331133575        1.9634736056       -2.6275738324
 C          2.5292623409        1.5663044447       -1.4409721037
 H          3.3473685131        0.8650649103       -1.4463651867
 H          2.2912357514        1.5622405537       -3.5615768332
 H          0.4220818036        3.1710556235       -3.5354411136
 H         -0.4047626552        4.0720884248       -1.3906997401
 H          0.6326844915        3.2997307076        0.7429480961
 H          4.7203104046        0.5852045631        0.9545313584
 H          5.2170490685       -1.4399031950       -0.1775738743
 H          4.3488506299       -3.5072783906       -1.2073763850
 H          1.9585285640       -4.0483412459       -1.0882829323
 C         -0.0320857185       -2.5897421394        0.1546250089
 H         -0.2270815790       -2.9861062009        1.1631906463
 C         -0.5260090534       -3.5957277178       -0.8666528027
 C         -0.4955207577       -5.0643235812       -0.5682819459
 C         -1.8023717233       -4.3321021001       -0.5944886954
 H         -2.4812756723       -4.5112518660       -1.4147080692
 H         -2.2967510663       -4.1313899317        0.3450676617
 H         -0.2792825869       -5.7501781860       -1.3735932590
 H         -0.1094471743       -5.3727401163        0.3916089629
 H         -0.3411882499       -3.2741511838       -1.8856709288
 O         -1.8769525531       -1.6878033137        2.1408845744
