  62
        -98.94420968
 C         -1.9840121681       -1.2850792504        0.0042174234
 C         -2.3362771298       -0.3017107267       -0.9516720751
 C         -3.7536207458        0.0913962042       -0.9730637232
 C         -4.6165526520       -0.4918024965       -0.1218670854
 C         -6.0724415470       -0.1479265026       -0.0038933333
 C         -6.3010956286        0.9459746706        1.0485031250
 C         -5.3790936427        2.1554731918        0.8927430774
 H         -5.6522565330        2.8746080354        1.6680580640
 H         -4.3492052456        1.8481829210        1.0896307161
 C         -5.4499373179        2.8350198854       -0.4819258455
 H         -5.4951103913        3.9163153842       -0.3356600170
 H         -6.3659467290        2.5393940024       -0.9948488613
 C         -4.2495006788        2.5587375704       -1.3892576944
 H         -4.2946687977        3.2531098289       -2.2326469272
 H         -3.3237662127        2.7653649453       -0.8456221757
 C         -4.1628087308        1.1407757222       -1.9679758309
 H         -5.1115847781        0.8771843669       -2.4397291965
 H         -3.3851801831        1.1440380444       -2.7374210153
 H         -7.3418118914        1.2697316606        0.9894639752
 H         -6.1349041646        0.5147796532        2.0383860443
 H         -6.6148902810       -1.0463444947        0.2953378842
 H         -6.4424912842        0.1821803950       -0.9725406911
 O         -4.2433730412       -1.4408176751        0.7737055142
 C         -2.9236232389       -1.8443013660        0.8740491997
 O         -2.7139662843       -2.6987447375        1.7578136228
 O         -1.5217588388        0.2234173349       -1.7554755322
 C         -0.5462045654       -1.7556436734        0.1596962721
 C          0.2706165083       -0.6140698285        0.7127689782
 C          0.2334060444       -0.3508385251        2.0791183922
 C          0.9483995244        0.7031736116        2.6171859967
 C          1.7104111621        1.5228657675        1.8020189932
 C          1.7441746820        1.2738240056        0.4373270498
 C          1.0386613508        0.2053523881       -0.0995967706
 H          1.0664316495        0.0317174605       -1.1635103661
 N          2.5278408766        2.1026299655       -0.3971902854
 S          4.1816394003        1.9960772727       -0.1494613083
 O          4.5040827062        2.5877042459        1.1238414020
 O          4.7956746702        2.5984325097       -1.3107354160
 C          4.5057399098        0.2427493946       -0.1113758538
 C          4.7274529173       -0.4149509245       -1.3048440447
 C          4.8951212520       -1.7899668920       -1.2913622413
 C          4.8242505442       -2.4816850381       -0.0918326147
 C          4.5973974977       -1.8066715890        1.0975060929
 C          4.4353776260       -0.4305499793        1.0915761193
 H          4.2619230940        0.1302451661        1.9951987593
 H          4.5421280704       -2.3468241499        2.0290128246
 H          4.9468304316       -3.5533253866       -0.0845023649
 H          5.0762634207       -2.3179487552       -2.2139149682
 H          4.7785299222        0.1610810365       -2.2150475047
 H          2.3239317897        1.9695706358       -1.3780772220
 H          2.2838784172        2.3436196389        2.2018703684
 H          0.9116054774        0.8909720840        3.6796854890
 H         -0.3720818631       -0.9834140193        2.7137248332
 H         -0.5726878628       -2.5497379166        0.9173898884
 C          0.0109212530       -2.3277244490       -1.1275573456
 C          1.3087852780       -3.0760607270       -1.0884669534
 C          0.0251909161       -3.8120951865       -1.3256642838
 H         -0.1730437167       -4.2006468588       -2.3133579886
 H         -0.3685012149       -4.4264636490       -0.5292026533
 H          1.9968854485       -2.9601869066       -1.9115912816
 H          1.7894763893       -3.1850818390       -0.1281542935
 H         -0.1967309806       -1.7154116467       -1.9960214514
