  62
        -98.93437254
 C          2.3567840298        0.7141021987       -0.0893753105
 C          3.4803416599        1.0609168592        0.6946602492
 C          4.7942225898        0.6359277687        0.1819826694
 C          4.8527513897       -0.0361089522       -0.9811837401
 C          6.0751132096       -0.6053616928       -1.6470012297
 C          6.2814195795       -2.0744286025       -1.2399950186
 C          7.0907166095       -2.2815924916        0.0397364415
 H          7.0502545294       -3.3463530015        0.2806108623
 H          8.1355621096       -2.0285482719       -0.1518012287
 C          6.6099937697       -1.4844017907        1.2550512609
 H          5.5205195497       -1.5208077105        1.3114877610
 H          6.9961788697       -1.9741361801        2.1511462113
 C          7.0837934698       -0.0234952408        1.2444592998
 H          7.8566290398        0.0947748286        0.4852851597
 H          7.5521445399        0.2115781099        2.2024723596
 C          5.9798935699        1.0214167592        1.0243530291
 H          6.4256943700        1.9286192688        0.6030298684
 H          5.5503530800        1.3059199200        1.9901406189
 H          6.7946830394       -2.5938058432       -2.0517343282
 H          5.2950122395       -2.5326728423       -1.1312026282
 H          5.8899260196       -0.5652421336       -2.7223159197
 H          6.9520970497       -0.0067849127       -1.4194496402
 O          3.7435139897       -0.3444504926       -1.7093752798
 C          2.4744459297        0.0155659778       -1.2903495800
 O          1.5580750296       -0.3360883727       -2.0571757797
 O          3.3896650700        1.6899644900        1.7843814587
 C          0.9764099999        1.1281229092        0.3814452292
 C          0.0676154098       -0.0674530806        0.5270327202
 C          0.5453504297       -1.2171311902        1.1517258910
 C         -0.2689405404       -2.3193000000        1.3233725118
 C         -1.5863289504       -2.2927110401        0.8999001119
 C         -2.0755886503       -1.1491040806        0.2818452711
 C         -1.2482229502       -0.0500022808        0.0936764802
 H         -1.6568325802        0.8202975489       -0.3917072104
 N         -3.4034806404       -1.0854004708       -0.1695449789
 S         -4.2137042702        0.3910606794       -0.0368972200
 O         -3.9425019902        1.1816285985       -1.2110387606
 O         -3.9106504101        1.0077007903        1.2345039395
 C         -5.9107990403       -0.1586700804       -0.0613035895
 C         -6.5264849003       -0.3813605313       -1.2785193893
 C         -7.8376424004       -0.8301957112       -1.2933879989
 C         -8.5074426003       -1.0481060702       -0.0984958688
 C         -7.8770648403       -0.8188113894        1.1153135311
 C         -6.5656628602       -0.3709937095        1.1374642007
 H         -6.0391896702       -0.1685893888        2.0563354905
 H         -8.4016285203       -0.9851693386        2.0423787712
 H         -9.5283797404       -1.3955682301       -0.1133799285
 H         -8.3321722304       -1.0064866818       -2.2349698388
 H         -5.9695162604       -0.1888805120       -2.1807610895
 H         -3.9691529304       -1.8586400605        0.1524686217
 H         -2.2251770705       -3.1512297000        1.0409353825
 H          0.1210454795       -3.2049466396        1.8024364225
 H          1.5698709497       -1.2346382000        1.4986368710
 H          1.1246390300        1.5620357699        1.3826711489
 C          0.4136647800        2.2002138786       -0.5285187315
 C         -0.5557564099        3.2122804991        0.0023653577
 C          0.8447998101        3.6222477887       -0.3373681326
 H          1.0063231901        4.2344300880       -1.2118615031
 H          1.5285504702        3.8267018492        0.4735642272
 H         -1.3633040499        3.5356258687       -0.6380970725
 H         -0.8311076699        3.1420232299        1.0443223478
 H          0.2766137399        1.8500662778       -1.5464028913
