  62
        -98.93342516
 C         -1.6159836802       -0.2980437946        0.0144678690
 C         -2.7414833935       -1.1067150546        0.3080867120
 C         -4.0723273599       -0.4911893710        0.1512665464
 C         -4.1516733880        0.7901240780       -0.2486502943
 C         -5.3792047536        1.6344342277       -0.4809218423
 C         -6.5435082739        0.9679386667       -1.2298987630
 C         -7.7556831871        0.6837482576       -0.3411106394
 H         -7.8903625620        1.5251092933        0.3419064247
 H         -8.6461327405        0.6307246222       -0.9715382119
 C         -7.6816573058       -0.6130812607        0.4630394817
 H         -8.5302243674       -0.6237018975        1.1511824165
 H         -7.8005396312       -1.4636238869       -0.2117463993
 C         -6.3953917114       -0.8118593490        1.2673328021
 H         -6.6132419455       -1.5123269188        2.0763530939
 H         -6.0867407752        0.1240581425        1.7317822425
 C         -5.2382175464       -1.3960454409        0.4433777792
 H         -5.6182606003       -1.7984813584       -0.5002147395
 H         -4.7998018676       -2.2453559040        0.9766571287
 H         -6.2010460048        0.0516135195       -1.7082994726
 H         -6.8600166079        1.6468446571       -2.0235224729
 H         -5.7267990941        2.0123813365        0.4838821820
 H         -5.0234068904        2.5010309533       -1.0430217093
 O         -3.0408680126        1.5449266315       -0.4822109775
 C         -1.7542030948        1.0409198121       -0.3513074698
 O         -0.8632969753        1.8781341871       -0.5837531431
 O         -2.6398986171       -2.3015922976        0.6956174741
 C         -0.2435431082       -0.9284970721        0.1685602898
 C          0.6782883924       -0.0163509599        0.9354963287
 C          0.4228471251        0.2174549399        2.2845628611
 C          1.2358324873        1.0548644206        3.0227312778
 C          2.3351022953        1.6592782684        2.4376949713
 C          2.5970886262        1.4342860441        1.0921124377
 C          1.7707900581        0.6014924797        0.3492144263
 H          1.9670498851        0.4838447210       -0.7025906822
 N          3.7017013664        2.0305330237        0.4706782609
 S          4.5212876960        1.2354055330       -0.7428695240
 O          5.8532984222        1.8026133892       -0.7050799230
 O          3.8289428192        1.3558355491       -2.0008651228
 C          4.5779727373       -0.4769513469       -0.2402868032
 C          5.0772813758       -0.7839302753        1.0100928161
 C          5.1176255831       -2.1099133891        1.4090142831
 C          4.6640694909       -3.1030735015        0.5544366280
 C          4.1748032271       -2.7802725367       -0.7015247491
 C          4.1294494059       -1.4548158581       -1.1040230177
 H          3.7501283352       -1.1584151445       -2.0691010689
 H          3.8247904124       -3.5538668896       -1.3666225258
 H          4.6926404230       -4.1347453919        0.8676429028
 H          5.5002931977       -2.3648673228        2.3840428366
 H          5.4299263687        0.0086603558        1.6494429180
 H          4.3158159608        2.5513888557        1.0779850575
 H          2.9744402967        2.3121071318        3.0121726743
 H          1.0193653652        1.2339424278        4.0651053530
 H         -0.4334499757       -0.2582097556        2.7429346010
 H         -0.4255510600       -1.8234110854        0.7867026345
 C          0.3686158930       -1.4214371048       -1.1336813480
 C         -0.4887249787       -1.9318781382       -2.2515494689
 C          0.2693572184       -0.6499764414       -2.4139093651
 H          1.1266963455       -0.6311726613       -3.0717679379
 H         -0.2766374503        0.2805664183       -2.3983564316
 H         -0.1566260126       -2.8008053409       -2.7992009265
 H         -1.5602879253       -1.8770525232       -2.1258384190
 H          1.3000260518       -1.9520523109       -0.9594805564
