  62
        -98.94158883
 C          1.9910421183        1.5088730567        0.0219597516
 C          2.2073681349        0.5417339576       -0.9905103775
 C          3.5423054421       -0.0796883725       -1.0101683641
 C          4.4584241970        0.2778265005       -0.0933727973
 C          5.8284366432       -0.3209551002        0.0345211240
 C          5.8247808047       -1.5171112765        0.9966376179
 C          4.7184097513       -2.5337021273        0.7143997194
 H          4.8332907959       -3.3476476588        1.4335922341
 H          3.7486753422       -2.0694602193        0.9095350891
 C          4.7298758163       -3.1051700679       -0.7103928369
 H          5.7029882166       -2.9318073493       -1.1711947244
 H          4.5857034948       -4.1863165543       -0.6548289821
 C          3.6320392947       -2.5560394801       -1.6233209993
 H          2.6638744100       -2.6464147495       -1.1238988837
 H          3.5951026419       -3.1780740428       -2.5217564205
 C          3.8078410422       -1.1020737749       -2.0797812798
 H          4.8059128068       -0.9679966827       -2.5014735325
 H          3.0729831013       -0.9110453616       -2.8673231973
 H          6.7970451071       -2.0098167146        0.9388086106
 H          5.6933617913       -1.1428029424        2.0145562288
 H          6.1768795629       -0.6328032551       -0.9481750952
 H          6.5026975414        0.4440125307        0.4233055242
 O          4.2158628183        1.2072739542        0.8651646796
 C          2.9867017370        1.8372496429        0.9478763816
 O          2.9022724820        2.6694891352        1.8729836798
 H         -0.1630110531       -0.2583775970       -0.2668185170
 C         -0.6448680399        0.1752276210        0.5971887351
 C         -0.3206126107        1.4713474524        0.9757175124
 C         -0.9548351208        2.0177746979        2.0847817976
 C         -1.8854163331        1.2820151057        2.7986864551
 C         -2.2058671256       -0.0087473348        2.4183569382
 C         -1.5801574898       -0.5622385235        1.3083334964
 N         -1.9080045331       -1.8717441643        0.9007067979
 S         -3.5210640582       -2.1682996865        0.5528441172
 O         -4.2713004260       -2.1922581817        1.7830973495
 O         -3.5307913312       -3.3855100127       -0.2254320383
 C         -4.0278610300       -0.7824612283       -0.4472147337
 C         -3.7578649346       -0.8180584806       -1.8009450866
 C         -4.0815520351        0.2819629268       -2.5783861948
 C         -4.6529145491        1.3991781185       -1.9885463044
 C         -4.9156945825        1.4198852348       -0.6276775164
 C         -4.6026148211        0.3193726235        0.1541550369
 H         -4.7989156060        0.2935084087        1.2131358845
 H         -5.3596745371        2.2901768988       -0.1721871956
 H         -4.8928026146        2.2588012439       -2.5936202680
 H         -3.8784721771        0.2672366511       -3.6370530630
 H         -3.3115611316       -1.7051533704       -2.2214462481
 H         -1.3328077211       -2.1974898424        0.1364620620
 H         -2.9307600966       -0.5954484862        2.9592942927
 H         -2.3650797231        1.7172649487        3.6620928127
 H         -0.7034972052        3.0216422963        2.3944025296
 C          0.6834644114        2.2690458589        0.1849850483
 H          0.9454346036        3.1554578402        0.7833174686
 C          0.1261523785        2.7731609668       -1.1411364112
 C         -1.1101826094        2.2355357532       -1.7900066208
 C         -1.1299133341        3.5937559104       -1.1608753523
 H         -1.1694389235        4.4640458105       -1.7978358417
 H         -1.6636046323        3.7006981578       -0.2286026010
 H         -1.1124670955        2.1577423487       -2.8662237722
 H         -1.6467948238        1.4396322044       -1.2985777488
 H          0.9203280519        3.0851081187       -1.8122630578
 O          1.3468776830        0.1946497269       -1.8408668567
