  62
        -98.94044965
 C         -1.3852013493       -1.6860408107        0.1431775395
 C         -0.4677617492       -2.1902315001       -0.8087585808
 C          0.9278994809       -2.3610233098       -0.3625055711
 C          1.2301951610       -2.1186426101        0.9250363590
 C          2.5828748111       -2.1452298798        1.5849494287
 C          3.6423619007       -1.2817976292        0.8786491488
 C          4.7685580109       -2.1085162187        0.2596427684
 H          5.6447949307       -1.4688237483        0.1334916985
 H          5.0411913013       -2.9067125488        0.9530963481
 C          4.4372805809       -2.7102478083       -1.1043813018
 H          4.3780217405       -1.9074507281       -1.8433922115
 H          5.2707501611       -3.3561975279       -1.3911536621
 C          3.1418321412       -3.5244879088       -1.1787387918
 H          2.9991503015       -4.1125282491       -0.2738035920
 H          3.2493180613       -4.2324954984       -2.0037841121
 C          1.8903572108       -2.6876045591       -1.4716748413
 H          2.1732235504       -1.7360565788       -1.9393003911
 H          1.2784830109       -3.2050084891       -2.2187625814
 H          3.1658219804       -0.6665906892        0.1127561191
 H          4.0757096606       -0.6011272393        1.6131598090
 H          2.4211044312       -1.7825183102        2.6016147089
 H          2.9315798715       -3.1756592297        1.6645922983
 O          0.2804896110       -1.7736711707        1.8412867892
 C         -1.0180918491       -1.4610252010        1.4681319395
 O         -1.7192133291       -1.0130051116        2.3940742998
 O         -0.7964362093       -2.4591172998       -1.9965543208
 C         -2.7557958395       -1.2392582611       -0.3375469901
 C         -2.7588949700        0.2722873589       -0.3175490996
 C         -3.6720391502        1.0395298784        0.3923887608
 C         -3.5631017006        2.4202016084        0.4037646112
 C         -2.5413784610        3.0588745690       -0.2743309887
 C         -1.6266592708        2.3004023995       -0.9980361091
 C         -1.7545486303        0.9217272795       -1.0282065296
 H         -1.0441536802        0.3420612099       -1.6001846999
 N         -0.5787664111        2.9153661101       -1.7095646391
 S          0.9987824491        2.3978630806       -1.5025186495
 O          1.7960585586        3.3986696311       -2.1775417793
 O          1.1527434895        1.0424889208       -1.9632473000
 C          1.2838979593        2.4875270801        0.2531886505
 C          1.8603356390        3.6187068502        0.7968960507
 C          2.0235182192        3.6896361098        2.1710436407
 C          1.5975274197        2.6416487194        2.9740214504
 C          1.0160044500        1.5151346293        2.4127210902
 C          0.8601859898        1.4358792697        1.0387061502
 H          0.4160212400        0.5734873297        0.5674285300
 H          0.6701688504        0.6974129790        3.0260583800
 H          1.7183535999        2.7001864491        4.0442199304
 H          2.4781432090        4.5616595398        2.6128680109
 H          2.1790645986        4.4074283205        0.1347187009
 H         -0.6063462915        3.9251426901       -1.6852657688
 H         -2.4506931213        4.1341693190       -0.2495751584
 H         -4.2774255607        3.0060988080        0.9617180115
 H         -4.4624328499        0.5575036079        0.9433094308
 H         -2.8170649195       -1.5650998607       -1.3862742602
 C         -3.8835596491       -1.8772481017        0.4405548299
 C         -5.2467992092       -1.9763553620       -0.1745003099
 C         -4.4098723888       -3.2074630717       -0.0051527605
 H         -4.6938982984       -3.9270519621        0.7478626393
 H         -3.9647445687       -3.6498815313       -0.8846257607
 H         -6.1103556391       -1.8533112725        0.4612295702
 H         -5.3736912795       -1.5840805517       -1.1723071898
 H         -3.8125380190       -1.7023502820        1.5072531099
