  62
        -98.94467704
 C         -1.6042980399       -1.2105158429       -0.3822812131
 C         -1.4844208122        0.2004416468       -0.3589257210
 C         -2.5232903030        0.9222104679        0.3930982173
 C         -3.4889504470        0.2339814429        1.0262840078
 C         -4.6340999998        0.8474032703        1.7778087240
 C         -5.8454087019        1.0712405714        0.8611077811
 C         -5.5061622629        1.7728439718       -0.4540858296
 H         -4.8676532916        1.1185886963       -1.0518481380
 H         -6.4409605288        1.9008404560       -1.0040715086
 C         -4.8198168443        3.1359108355       -0.2885133217
 H         -4.9770139967        3.5091562752        0.7241308277
 H         -5.2855699567        3.8481928679       -0.9728170970
 C         -3.3217444315        3.1337362568       -0.5987916490
 H         -3.1508201441        2.6764713228       -1.5764075162
 H         -2.9851764645        4.1721875802       -0.6580995321
 C         -2.4323193507        2.4219489989        0.4284139302
 H         -1.3903020894        2.6658005159        0.2012532758
 H         -2.6524201644        2.7954247499        1.4308841483
 H         -6.5872435843        1.6565801300        1.4075105005
 H         -6.2849095557        0.0989471473        0.6267389107
 H         -4.9188642799        0.1682842878        2.5833958717
 H         -4.3122283008        1.7923736537        2.2115235571
 O         -3.5586976034       -1.1214507653        1.0072202705
 C         -2.6275919718       -1.8686209693        0.3075623450
 O         -2.8193343640       -3.1005000576        0.3649408545
 H          1.2721526399       -0.4304724495       -0.1533887498
 C          1.4217456827       -1.4364246675        0.1998517009
 C          0.5405872496       -2.4376503696       -0.1870963806
 C          0.7314164150       -3.7261434733        0.2974769905
 C          1.7759069522       -4.0038198327        1.1608253438
 C          2.6384301356       -3.0010315003        1.5615960885
 C          2.4569242893       -1.7063960042        1.0829904555
 N          3.3372455812       -0.6907744070        1.4703151558
 S          2.9052204217        0.9237960390        1.5877313755
 O          3.8134131710        1.4490720733        2.5885337767
 O          1.4987048551        1.0892186821        1.8614083826
 C          3.3758337256        1.5916141647        0.0056453991
 C          4.7309279352        1.7067805913       -0.2433411347
 C          5.1510660883        2.2084292916       -1.4633363702
 C          4.2125606642        2.5867641020       -2.4123386727
 C          2.8581129813        2.4680292767       -2.1457453723
 C          2.4296031664        1.9664757369       -0.9250644061
 H          1.3799654837        1.8535238902       -0.7013414403
 H          2.1241465366        2.7590890029       -2.8804556160
 H          4.5377227298        2.9769994211       -3.3640240006
 H          6.2046805521        2.3028940137       -1.6715770218
 H          5.4247200738        1.4137760612        0.5270239297
 H          4.0033477984       -0.9523211204        2.1814161484
 H          3.4459702007       -3.2126966599        2.2460661025
 H          1.9132980455       -5.0076648060        1.5335066902
 H          0.0402068114       -4.5052209841        0.0108106479
 C         -0.6251802774       -2.1309306323       -1.0981535177
 H         -1.1712012063       -3.0705626182       -1.2610213642
 C         -0.1564122761       -1.6147812538       -2.4433377805
 C          0.3866442818       -2.5922824147       -3.4403856634
 C         -0.9466934569       -1.9480091222       -3.6712696559
 H         -1.0347206820       -1.2005565207       -4.4452285497
 H         -1.8338532930       -2.5523830527       -3.5467196387
 H          0.4030652985       -3.6350664719       -3.1613277344
 H          1.2182019689       -2.2883811016       -4.0571148601
 H          0.2993940752       -0.6354531204       -2.3982228699
 O         -0.5776930029        0.8511622847       -0.9406898779
