  62
        -98.94177303
 C          1.2208261677        1.0920718968        0.7189885053
 C          1.4701902506        0.5219226090       -0.5551012054
 C          2.3339759506       -0.6721259434       -0.5587254170
 C          2.6862430275       -1.2391377169        0.6074047697
 C          3.5837912527       -2.4334449076        0.7488679133
 C          5.0479553319       -2.0063743501        0.9233326303
 C          5.5168523406       -0.9807783017       -0.1089094827
 H          4.9775072393       -0.0437698722        0.0482592004
 H          6.5719652843       -0.7792640766        0.0885112206
 C          5.3455328644       -1.4247798067       -1.5684489055
 H          6.2576361250       -1.1802400158       -2.1169641910
 H          5.2217756105       -2.5073070808       -1.6147725021
 C          4.1884247471       -0.7487439170       -2.3066758864
 H          4.2984001372       -0.9598355335       -3.3737408175
 H          4.2597350063        0.3347151990       -2.1801905370
 C          2.7783881917       -1.1940269243       -1.8962852355
 H          2.0780225643       -0.7799222463       -2.6276094491
 H          2.7143754616       -2.2832207811       -1.9334302411
 H          5.6774497278       -2.8962952746        0.8666091243
 H          5.1664603004       -1.5698976541        1.9178903800
 H          3.4848479541       -3.0656516931       -0.1314316635
 H          3.2722362905       -2.9968080166        1.6300173230
 O          2.2871413947       -0.7543926792        1.8111285610
 C          1.5848265035        0.4345047043        1.8977648422
 O          1.3287825982        0.7900158918        3.0666207753
 O          1.0209265381        0.9734528646       -1.6373708911
 C          0.4474851157        2.3895609706        0.8933680444
 C         -0.8829945567        2.2797091408        0.1942577769
 C         -1.1650058382        2.8930272000       -1.0185737034
 C         -2.3939173194        2.7048955312       -1.6277290872
 C         -3.3679071256        1.9195804155       -1.0366634105
 C         -3.0968215503        1.3105453572        0.1812516992
 C         -1.8605892364        1.4867478680        0.7827049367
 H         -1.6431456952        0.9980302572        1.7251020019
 N         -4.0890227096        0.5081612776        0.7935705638
 S         -4.4164508905       -0.9426568883        0.0251859031
 O         -4.9559388740       -0.6659235421       -1.2804151228
 O         -5.2669715336       -1.6812714620        0.9302544122
 C         -2.8298598519       -1.7436473041       -0.1166890084
 C         -2.4133980262       -2.5802187656        0.8995797739
 C         -1.1530256411       -3.1501384441        0.8240447607
 C         -0.3333288227       -2.8680212398       -0.2577710524
 C         -0.7647241446       -2.0222776195       -1.2676300221
 C         -2.0232619876       -1.4483744912       -1.1969435633
 H         -2.3874528121       -0.7827746779       -1.9624574056
 H         -0.1227218879       -1.7946166396       -2.1024653684
 H          0.6499223080       -3.3077985124       -0.3129670769
 H         -0.8115787727       -3.8072337485        1.6079247756
 H         -3.0853492242       -2.7792325954        1.7193378768
 H         -3.8933931091        0.3200794595        1.7675005647
 H         -4.3244466860        1.7531147109       -1.5049260326
 H         -2.5967296145        3.1765963206       -2.5772414268
 H         -0.4093371047        3.4936780666       -1.4974799858
 H          0.2489294929        2.4509884399        1.9754856619
 C          1.2179638929        3.6499766473        0.5309033434
 C          2.6776703896        3.7618726367        0.8553119499
 C          2.2275795427        3.7246626783       -0.5726052850
 H          2.2807515369        4.6380074474       -1.1473178211
 H          2.4155041273        2.8362372920       -1.1524090173
 H          3.0496873480        4.6915613232        1.2587283505
 H          3.1614201322        2.8845861007        1.2612421973
 H          0.6189967777        4.5405929616        0.6966746162
