  62
        -98.94064390
 C         -1.7636514871       -0.4907594902       -0.3881434465
 C         -2.9515087868       -0.6676337399       -1.1423967675
 C         -4.2121173481       -0.6254331023       -0.3901160933
 C         -4.1728170784       -0.4776120411        0.9464488276
 C         -5.3788439052       -0.3672390747        1.8326470877
 C         -5.8028137846        1.0969821621        2.0145809823
 C         -5.9123693711        1.8764004533        0.7040505633
 H         -6.2466681446        2.8858249002        0.9530626042
 H         -4.9186573813        1.9680549553        0.2596333756
 C         -6.8713961169        1.2594831188       -0.3237018717
 H         -7.5412714498        0.5549714485        0.1706154560
 H         -7.4907712921        2.0536464058       -0.7458693401
 C         -6.1806361604        0.5620964898       -1.4971569660
 H         -6.9338768001        0.3573994773       -2.2626492431
 H         -5.4407278780        1.2342388113       -1.9393480766
 C         -5.4894939927       -0.7673080975       -1.1688620856
 H         -6.1875864154       -1.4258906845       -0.6479392126
 H         -5.2117163196       -1.2406872644       -2.1153212109
 H         -6.7634390677        1.1160013107        2.5324789220
 H         -5.0650289863        1.5946501394        2.6481024685
 H         -6.1953537572       -0.9416499334        1.3991594706
 H         -5.1282465448       -0.7878997275        2.8079134189
 O         -3.0142076797       -0.3693597887        1.6429613481
 C         -1.7805754658       -0.3697817363        1.0024783021
 O         -0.8126112085       -0.2635057607        1.7768659203
 O         -2.9551727043       -0.8589311899       -2.3881689740
 C         -0.4454141932       -0.5200248767       -1.1397695241
 C          0.5342962598       -1.4381933749       -0.4538030342
 C          0.1567708069       -2.7569936336       -0.2096394930
 C          1.0151688541       -3.6334547926        0.4226803883
 C          2.2824448046       -3.2233208748        0.8005323219
 C          2.6738817001       -1.9155616410        0.5506567207
 C          1.7992313302       -1.0302598545       -0.0646810721
 H          2.1168719094       -0.0136659377       -0.2214773941
 N          3.9505269483       -1.4579976895        0.9153080934
 S          4.8229036492       -0.5589335939       -0.1956295683
 O          4.5127862333       -0.9493941965       -1.5516578227
 O          6.2044764885       -0.7138811723        0.2088054292
 C          4.3336089327        1.1294182727        0.0828002197
 C          4.3028301628        1.6065525881        1.3780166768
 C          3.9620376984        2.9320625259        1.5939911514
 C          3.6664571037        3.7551483518        0.5177724925
 C          3.7050814026        3.2613970241       -0.7774180712
 C          4.0424654795        1.9355235200       -0.9998045215
 H          4.0762594229        1.5071490856       -1.9890350799
 H          3.4725433792        3.9021170397       -1.6133046892
 H          3.4008921327        4.7865743726        0.6888543676
 H          3.9268800080        3.3193641898        2.5994759853
 H          4.5392063600        0.9384656244        2.1890935935
 H          4.5312483241       -2.1468287845        1.3713436614
 H          2.9588990281       -3.9087612530        1.2887400218
 H          0.7017950803       -4.6487454239        0.6152794054
 H         -0.8296205325       -3.0819894126       -0.5131674758
 H         -0.6990808669       -0.9736045793       -2.1135711925
 C          0.1309830772        0.8554622039       -1.4417298977
 C         -0.7547823570        2.0593748698       -1.5510602162
 C          0.2019866717        1.9354763936       -0.4053398267
 H          1.0729896890        2.5741524488       -0.3910989856
 H         -0.1896994012        1.7099887415        0.5737070273
 H         -0.5440629911        2.7814799817       -2.3253937267
 H         -1.8086896606        1.9240831836       -1.3553217599
 H          0.9558925951        0.8015136553       -2.1465902000
