  62
        -98.94850732
 C          1.2440251634        1.5173030563        0.4996152892
 C          2.1582979379        1.1754615974       -0.5257318813
 C          3.1940325074        0.1993275134       -0.1595636796
 C          3.2216251841       -0.3000185047        1.0892180678
 C          4.1974233523       -1.3285384731        1.5814537638
 C          3.6448496858       -2.7507090850        1.4163028986
 C          3.0845022597       -3.0455339704        0.0244109556
 H          2.7753667291       -4.0936945580        0.0176388209
 H          2.1763628309       -2.4570141833       -0.1314554176
 C          4.0698839914       -2.7975191776       -1.1262956095
 H          3.9998598383       -3.6325210324       -1.8267984725
 H          5.0906716178       -2.7812245390       -0.7415999009
 C          3.8088144191       -1.5219314125       -1.9298360889
 H          4.3972477517       -1.5740301366       -2.8500455350
 H          2.7540483087       -1.4830268627       -2.2160065503
 C          4.1677025109       -0.2051670589       -1.2294722967
 H          5.1827074146       -0.2634699105       -0.8311642807
 H          4.1358414312        0.5903855448       -1.9797623912
 H          2.8396628341       -2.8985022132        2.1399608399
 H          4.4438040191       -3.4588690690        1.6458932288
 H          5.1320289212       -1.2254020364        1.0334410270
 H          4.3853070427       -1.1440445351        2.6408644937
 O          2.3295350367        0.0554322858        2.0484829640
 C          1.2999559619        0.9389796503        1.7665123862
 O          0.5108137165        1.1297456274        2.7156537252
 H         -0.4209811107       -0.1109799891       -0.2455311259
 C         -0.9656163177        0.5200833222       -0.9296133245
 C         -0.7940557097        1.8952649019       -0.8740861271
 C         -1.4826260897        2.6830472307       -1.7888001068
 C         -2.3054676425        2.0964826352       -2.7350323875
 C         -2.4761747682        0.7242721104       -2.7815676897
 C         -1.7941649523       -0.0714603487       -1.8684542312
 N         -1.9214606667       -1.4682813753       -1.8740846519
 S         -1.8642946256       -2.3148702816       -0.4339485839
 O         -0.5191846055       -2.3516457839        0.0814580681
 O         -2.4512558137       -3.5982435458       -0.7563781177
 C         -2.9529518849       -1.4174058745        0.6578235859
 C         -4.3067218235       -1.4781777077        0.3845582426
 C         -5.1865949106       -0.7553955513        1.1720198946
 C         -4.7003326779        0.0205671662        2.2139562689
 C         -3.3412184065        0.0669088950        2.4793404849
 C         -2.4556339626       -0.6583429169        1.6965920962
 H         -1.3942659691       -0.6309533173        1.8892967662
 H         -2.9510312934        0.6666242266        3.2864434727
 H         -5.3829051483        0.5898580032        2.8249116803
 H         -6.2449242939       -0.7954539966        0.9710060305
 H         -4.6455754375       -2.1023245257       -0.4262640306
 H         -2.6156786614       -1.8364498732       -2.5069035829
 H         -3.1182328251        0.2712724143       -3.5210713240
 H         -2.8275134147        2.7188497712       -3.4457456467
 H         -1.3680716314        3.7544788072       -1.7656470727
 C          0.0975419043        2.4655548508        0.2046064359
 H         -0.4953515184        2.5227428126        1.1304684392
 C          0.6190843531        3.8496892474       -0.1252971635
 C         -0.1572658906        5.0684711931        0.2714524454
 C          1.1098183277        4.7203027327        0.9911709656
 H          1.9861566636        5.3283754594        0.8245330662
 H          1.0384767884        4.3245144874        1.9941931201
 H         -0.1494054676        5.9220711662       -0.3895636022
 H         -1.0900568228        4.9211427247        0.7946271458
 H          1.1714362246        3.8723995420       -1.0574004575
 O          2.1121215103        1.6571190252       -1.6880048955
