  62
        -98.94087420
 C         -1.6607811191       -0.1309158068        0.6900758214
 C         -2.9178951270       -0.1296429362        1.3472755213
 C         -4.0639858993       -0.5873929882        0.5544514986
 C         -3.8809831845       -0.9646224542       -0.7236544829
 C         -4.9431615546       -1.4812432647       -1.6558599263
 C         -5.7492710224       -0.3793775068       -2.3569928701
 C         -6.7370095517        0.3723791264       -1.4638673886
 H         -7.3828732702        0.9574614329       -2.1216497503
 H         -7.3703164142       -0.3444343835       -0.9401929624
 C         -6.0793298883        1.3185594654       -0.4495435021
 H         -6.5963726692        2.2807781962       -0.4601921184
 H         -5.0451435327        1.5084677214       -0.7463296576
 C         -6.0951680355        0.8120434642        0.9927938766
 H         -5.5721862058        1.5403281254        1.6180306767
 H         -7.1264170745        0.7447213130        1.3465052284
 C         -5.4207751623       -0.5518459059        1.1905528065
 H         -5.2907310670       -0.7172053308        2.2629575965
 H         -6.0508787468       -1.3448342804        0.7880838637
 H         -6.3113654989       -0.8517741206       -3.1659012890
 H         -5.0518733814        0.3307273030       -2.8074155906
 H         -4.4275875713       -2.0682483685       -2.4189235477
 H         -5.6210682101       -2.1384617072       -1.1104542635
 O         -2.6640380483       -0.9331123892       -1.3253684343
 C         -1.5284896705       -0.4957007434       -0.6511555761
 O         -0.5022933385       -0.4901627773       -1.3539964228
 H          2.1025194812        0.1956148416        0.4605131873
 C          1.6139879410        1.1280661519        0.2343610739
 C          0.3207684237        1.3607184913        0.6719061964
 C         -0.2907039044        2.5669729805        0.3386591446
 C          0.3751760351        3.5111477520       -0.4173911417
 C          1.6709396176        3.2787606007       -0.8448262220
 C          2.2895954217        2.0786683286       -0.5184116663
 N          3.5888624702        1.8008315380       -0.9615440851
 S          4.6427462610        0.9086603503       -0.0271966254
 O          4.4706670413        1.1814976153        1.3815131251
 O          5.9514154814        1.2106049323       -0.5690425192
 C          4.2632572726       -0.7969785372       -0.3695821581
 C          4.4825090917       -1.7296970667        0.6250534899
 C          4.2417576496       -3.0678497393        0.3563627491
 C          3.7868014572       -3.4480232104       -0.8968196986
 C          3.5714194308       -2.4989265488       -1.8839777164
 C          3.8156267891       -1.1600215377       -1.6236467990
 H          3.6487636962       -0.3997340973       -2.3680665002
 H          3.2098986179       -2.7960854036       -2.8552275338
 H          3.5953091330       -4.4892240995       -1.1034322407
 H          4.4068201374       -3.8072366782        1.1241294916
 H          4.8237651606       -1.3888781011        1.5897638578
 H          4.0495448686        2.5441075304       -1.4645498173
 H          2.1952077623        4.0156719514       -1.4342369289
 H         -0.1136117668        4.4396281666       -0.6723097108
 H         -1.3027915116        2.7492028784        0.6745719118
 C         -0.4568836307        0.3531392462        1.4784560420
 H         -0.8924666994        0.8790654212        2.3450410307
 C          0.4125808445       -0.7601027714        2.0426239148
 C         -0.1917961346       -2.0633938943        2.4695260546
 C          0.7167575180       -2.0131035485        1.2796523294
 H          1.7065734982       -2.4362772446        1.3695233249
 H          0.2889229124       -2.1173572559        0.2953301602
 H          0.1695130585       -2.5244296581        3.3763182969
 H         -1.2499273498       -2.2007329295        2.3003837678
 H          1.2090250448       -0.3683713714        2.6695435778
 O         -3.0745654137        0.2383858891        2.5420931508
