  62
        -98.93994979
 C         -2.0458126670       -1.0986040296       -0.5070576916
 C         -1.4511620505        0.0356929982       -1.1036835725
 C         -2.0573937612        1.3504392129       -0.8068006819
 C         -3.1555560980        1.4050389130       -0.0328145430
 C         -3.9324121137        2.6104858081        0.4291258232
 C         -3.2262236680        3.3791466202        1.5535812867
 C         -1.7532573978        3.6801178623        1.2916868466
 H         -1.3592453121        4.1955901373        2.1722906525
 H         -1.1979423531        2.7440513474        1.2005666486
 C         -1.4807748997        4.5609549604        0.0736222327
 H         -0.4201332690        4.8236437029        0.1040339939
 H         -2.0555726037        5.4856302414        0.1630737669
 C         -1.7679354112        3.9279045738       -1.2918423310
 H         -1.2305566881        4.5158187933       -2.0413812066
 H         -2.8223567171        3.9898650114       -1.5492231912
 C         -1.2828912473        2.4888719737       -1.4253346457
 H         -1.1953962121        2.2402761352       -2.4893875518
 H         -0.2664111503        2.4167277495       -1.0193994028
 H         -3.7659864255        4.3135754566        1.7209306880
 H         -3.2897582145        2.7834531865        2.4678679627
 H         -4.1445242584        3.2690077513       -0.4078853173
 H         -4.8859137635        2.2365465398        0.8097259799
 O         -3.7299656855        0.2781295877        0.4812754353
 C         -3.1818778959       -0.9727196051        0.2963788887
 O         -3.7987551053       -1.8928629508        0.8734307560
 O         -0.4467003804       -0.0092763563       -1.8640518658
 C         -1.4777477292       -2.5074845065       -0.6021304163
 C         -0.4348973908       -2.6844488254        0.4775196301
 C         -0.5569876263       -3.6831175460        1.4354535932
 C          0.3678789470       -3.7885476272        2.4595475230
 C          1.4067240201       -2.8823000865        2.5638250334
 C          1.5384942569       -1.8784767147        1.6087320667
 C          0.6421071836       -1.8119840913        0.5539461577
 H          0.7536287513       -1.0387851754       -0.1857211163
 N          2.5739359652       -0.9394405167        1.7012367742
 S          2.3665534185        0.6833927883        1.3084184790
 O          3.0968393253        1.3973403008        2.3383631644
 O          0.9751706313        1.0305131594        1.1629768085
 C          3.2699945058        0.8442646086       -0.2187330735
 C          4.6430744085        0.9770870312       -0.1220187579
 C          5.3946950610        1.0802783353       -1.2800414483
 C          4.7639809112        1.0488939199       -2.5150978259
 C          3.3871756027        0.9162764187       -2.5954260524
 C          2.6275578725        0.8113202668       -1.4389988391
 H          1.5545199550        0.7020136147       -1.4875500880
 H          2.8903906500        0.8908209859       -3.5522915037
 H          5.3471926654        1.1293511695       -3.4190067861
 H          6.4658972655        1.1850630868       -1.2174438882
 H          5.0892575738        1.0118976843        0.8580736125
 H          3.1435934951       -1.0309373393        2.5295854594
 H          2.1085230785       -2.9429218282        3.3821520279
 H          0.2648056201       -4.5690963072        3.1982746975
 H         -1.3948982320       -4.3631567910        1.3880422324
 H         -2.3139706214       -3.1821813009       -0.3717025097
 C         -0.9282577578       -2.8761084727       -1.9649433413
 C         -0.8461518826       -4.3233199442       -2.3436821367
 C         -1.8543955391       -3.4315088947       -3.0027839839
 H         -1.7018007005       -3.1472101520       -4.0328823845
 H         -2.8940758492       -3.5491140720       -2.7326724355
 H          0.0020796216       -4.6556404360       -2.9219257597
 H         -1.2039980367       -5.0498293933       -1.6298060135
 H         -0.1387959473       -2.2196462771       -2.3040261904
