  62
        -98.94298062
 C         -2.3377416645       -0.9022768527        0.3943861777
 C         -2.5394660283        0.2172571085       -0.4490020868
 C         -3.5735660632        1.1672328159       -0.0157463021
 C         -4.2298066689        0.9722796364        1.1415268094
 C         -5.2894361676        1.8664029554        1.7253212348
 C         -6.6970185514        1.6075605918        1.1706364634
 C         -6.9284802805        2.0819882974       -0.2645952643
 H         -8.0040254200        2.0370312761       -0.4469362345
 H         -6.6266681383        3.1260133994       -0.3544233291
 C         -6.2124962924        1.2433479263       -1.3325733734
 H         -6.9045296249        1.0262119381       -2.1494192606
 H         -5.9139522065        0.2840522197       -0.9034707644
 C         -4.9837790938        1.9137140185       -1.9473289859
 H         -4.5364328644        1.2187438673       -2.6626995733
 H         -5.2894302599        2.8085311448       -2.4942614621
 C         -3.9040293990        2.3078793478       -0.9310500320
 H         -2.9959888796        2.5698274303       -1.4797599171
 H         -4.2273016313        3.1755034551       -0.3564512971
 H         -7.4040207427        2.1279665097        1.8207468323
 H         -6.9081148546        0.5378978826        1.2392212310
 H         -5.3019031659        1.6717721886        2.7998384616
 H         -5.0195045258        2.9103946095        1.5641449353
 O         -3.9791598072       -0.0926170713        1.9472492625
 C         -3.0587458612       -1.0589214808        1.5841675004
 O         -2.9685521089       -2.0028669302        2.3942195515
 H          0.1404308949       -0.0137395929       -0.9395452565
 C          0.6923391000       -0.5949645596       -0.2153602808
 C          0.0648031506       -1.6552075611        0.4227449626
 C          0.7871755767       -2.3902369343        1.3553521819
 C          2.1032141765       -2.0693651696        1.6385190260
 C          2.7238674484       -1.0094497430        1.0019666339
 C          2.0097438054       -0.2667195020        0.0709824964
 N          2.6222981928        0.8274210543       -0.5665936392
 S          4.0954172872        0.5680868786       -1.3291655279
 O          4.1948372733        1.6071047470       -2.3308199847
 O          4.2164271943       -0.7922273766       -1.8011588851
 C          5.3004075126        0.8783363367       -0.0550349333
 C          5.2583266482        2.0930023522        0.6010624578
 C          6.1985755035        2.3547805812        1.5847260707
 C          7.1617166496        1.4048153766        1.8913218417
 C          7.1928230445        0.1916608220        1.2209241696
 C          6.2539917939       -0.0771756181        0.2369607777
 H          6.2351024308       -1.0084079047       -0.3064159122
 H          7.9426053034       -0.5452157626        1.4603119721
 H          7.8926041269        1.6117487395        2.6570523426
 H          6.1775632757        3.2970062997        2.1083506273
 H          4.4962739143        2.8048718390        0.3306089538
 H          1.9938646555        1.3323211571       -1.1757197248
 H          3.7484390750       -0.7547561457        1.2192091064
 H          2.6520331171       -2.6500538837        2.3641161521
 H          0.3063856160       -3.2126002912        1.8650736515
 C         -1.3597946009       -2.0252924933        0.0834126762
 H         -1.6517834754       -2.8567994218        0.7387076939
 C         -1.4509838819       -2.4990874745       -1.3555740959
 C         -0.9847851078       -3.8806766430       -1.6971267492
 C         -2.4478695625       -3.5555756381       -1.7198526276
 H         -2.9485740578       -3.4843871461       -2.6738202559
 H         -3.0697788661       -3.9493738578       -0.9288183451
 H         -0.6156388339       -4.4974099824       -0.8916908040
 H         -0.4752233494       -4.0342761205       -2.6360899165
 H         -1.2721130596       -1.7146842704       -2.0793512546
 O         -1.9027766697        0.4420859718       -1.5144040874
