  62
        -98.93898490
 C         -1.8839904790        0.7747727970        0.1000816479
 C         -2.4388444071        0.1011911246       -1.0114933666
 C         -3.5384295204       -0.8372153054       -0.7295028491
 C         -3.9183505419       -1.0313396598        0.5455448861
 C         -5.0453801089       -1.8942569501        1.0414846569
 C         -6.3321025758       -1.0661338259        1.1989797537
 C         -7.1886579172       -0.9594033150       -0.0622095189
 H         -7.9886784672       -0.2459345164        0.1483241822
 H         -7.6563865957       -1.9260737631       -0.2607019294
 C         -6.4466079532       -0.5075354306       -1.3228026052
 H         -5.7707204731        0.3137183145       -1.0776785494
 H         -7.1866130086       -0.1184465201       -2.0248472714
 C         -5.6663075032       -1.6420539532       -2.0033715167
 H         -5.9264966911       -1.6741853846       -3.0634244889
 H         -5.9820186875       -2.5951637882       -1.5792782433
 C         -4.1364961474       -1.5249021386       -1.9266774837
 H         -3.7721550637       -0.9521967215       -2.7854152402
 H         -3.6978399854       -2.5251260169       -2.0109584498
 H         -6.0471128182       -0.0664929666        1.5369985570
 H         -6.9429060315       -1.5142965435        1.9852664907
 H         -5.2016966077       -2.7430425117        0.3822623511
 H         -4.7458970159       -2.2626782397        2.0249488831
 O         -3.3267489846       -0.3941836002        1.5928053261
 C         -2.3039916870        0.5208086558        1.4057605517
 O         -1.8644406199        1.0232929594        2.4562018029
 H          0.3473027715       -0.6096314827       -0.4374736924
 C          0.9277473280       -0.0048800336        0.2484024113
 C          0.4992027921        1.2857139878        0.5377093829
 C          1.2613224247        2.0569585791        1.4041700367
 C          2.4009980186        1.5324987963        1.9909274980
 C          2.8110214932        0.2410033919        1.7190353374
 C          2.0678418256       -0.5316378154        0.8342502282
 N          2.4863934422       -1.8377613540        0.5325530840
 S          4.1152978092       -2.1030993172        0.2599893505
 O          4.1689720285       -3.2439560156       -0.6274185812
 O          4.7999800121       -2.2562818602        1.5197034445
 C          4.7036365488       -0.6362661764       -0.5690956327
 C          5.7258896947        0.1046620704       -0.0120490950
 C          6.1512208507        1.2537238300       -0.6594087812
 C          5.5466159043        1.6420171496       -1.8446004289
 C          4.5231007638        0.8847165097       -2.3938959401
 C          4.0958902344       -0.2664869023       -1.7526615681
 H          3.3047213246       -0.8773189938       -2.1576754429
 H          4.0533072186        1.1875401509       -3.3159765051
 H          5.8739138068        2.5394957743       -2.3452054476
 H          6.9482630754        1.8430696392       -0.2356935489
 H          6.1641451556       -0.2316729296        0.9134727557
 H          1.9123995287       -2.3091942603       -0.1502698299
 H          3.6840089645       -0.1866484025        2.1847347054
 H          2.9760295825        2.1381733788        2.6743403835
 H          0.9573573647        3.0648602723        1.6322138050
 C         -0.7634932524        1.7734118337       -0.1292509306
 H         -0.5939675508        1.7738611447       -1.2161931261
 C         -1.1871044694        3.1622147712        0.2977823711
 C         -0.5677159512        4.3673110905       -0.3426191711
 C         -1.9862249636        3.9990467146       -0.6543531172
 H         -2.7806111747        4.6139652200       -0.2586105223
 H         -2.2055128205        3.5758618301       -1.6239086511
 H          0.1778160627        4.1998796764       -1.1048674048
 H         -0.3886994999        5.2402198252        0.2665667383
 H         -1.4482210505        3.2146154100        1.3485777474
 O         -2.0330065758        0.2760482658       -2.1935265744
