  62
        -98.93897405
 C         -1.3266290860        0.8332913761       -0.2573513181
 C         -1.8852276018       -0.3489081596       -0.8075840890
 C         -2.8654311458       -1.0547154490        0.0278880974
 C         -3.1330050169       -0.5876578757        1.2607067043
 C         -4.1451424965       -1.1765539357        2.1991602215
 C         -5.5223461982       -0.5247930562        2.0118287300
 C         -5.9815304683       -0.4571005410        0.5552090596
 H         -6.9764220950       -0.0066640462        0.5490036977
 H         -5.3214566081        0.2168650106        0.0042345041
 C         -6.0299021636       -1.8147046114       -0.1598409784
 H         -6.0339742181       -2.6204583012        0.5752138512
 H         -6.9653593954       -1.8823279797       -0.7191752340
 C         -4.8949261013       -2.0456007815       -1.1592165586
 H         -4.8291751400       -1.1941015274       -1.8412154271
 H         -5.1437769037       -2.9256547739       -1.7580464700
 C         -3.5080487806       -2.2843707234       -0.5492514411
 H         -3.5675502417       -3.0766151975        0.1998872879
 H         -2.8450828120       -2.6180641939       -1.3527337850
 H         -6.2517978024       -1.0851501458        2.5995112388
 H         -5.4799642748        0.4935287218        2.4054982796
 H         -4.2131252077       -2.2489877480        2.0257346290
 H         -3.8074455508       -1.0040717952        3.2226293802
 O         -2.5288764623        0.5102979862        1.7815215056
 C         -1.6114394609        1.2506985161        1.0435558987
 O         -1.1324179667        2.2184733123        1.6625208769
 H          0.9117980652       -0.1419388714        0.5077231555
 C          1.4739963566        0.7814058287        0.4295451983
 C          0.9647478117        1.8192558044       -0.3417462413
 C          1.7031782663        2.9928974873       -0.4261126386
 C          2.9136837501        3.1164385629        0.2357354211
 C          3.4173735875        2.0765353815        0.9956307607
 C          2.6791734739        0.9069688493        1.1002601529
 N          3.2093338693       -0.1802189506        1.8452015364
 S          4.2843049939       -1.1055310299        0.9478349073
 O          4.5747240435       -2.2751301089        1.7456301037
 O          5.4050920223       -0.2761398998        0.5888136706
 C          3.3528073531       -1.5576817897       -0.5039006731
 C          3.3149393015       -0.6839563462       -1.5722842390
 C          2.4707948029       -0.9640057427       -2.6350021098
 C          1.6787300954       -2.1013491573       -2.6093922170
 C          1.7344572463       -2.9725482918       -1.5323438380
 C          2.5722068168       -2.6959206398       -0.4640981941
 H          2.6385495973       -3.3430712955        0.3965169507
 H          1.1154924107       -3.8553927163       -1.5165994884
 H          1.0032215727       -2.3030582480       -3.4253864420
 H          2.4214187690       -0.2869546184       -3.4726411813
 H          3.9408072966        0.1936137471       -1.5523487293
 H          2.4897360933       -0.7914258017        2.2068833054
 H          4.3669510667        2.1461256117        1.5002664057
 H          3.4732696196        4.0359014806        0.1559792191
 H          1.3302138169        3.8201380747       -1.0071068872
 C         -0.3144977822        1.5791291810       -1.1047138257
 H         -0.0734646175        0.8649131705       -1.9118849425
 C         -0.8583503614        2.8285225538       -1.7852541480
 C         -2.3305138170        3.0960866191       -1.8736180481
 C         -1.4641801104        3.9571421951       -1.0070140981
 H         -1.2640893976        4.9692693383       -1.3273085844
 H         -1.5321852573        3.8394096278        0.0629598417
 H         -2.7220703072        3.5105647043       -2.7906784978
 H         -2.9992312297        2.3990590366       -1.3891810233
 H         -0.2777948035        3.1031276742       -2.6602578742
 O         -1.5678260983       -0.7967961216       -1.9402238188
