  62
        -98.94725295
 C          0.9780808245        1.5234184863       -0.8817689928
 C          2.2953029631        1.4690046957       -0.3565542489
 C          3.0564047610        0.2456920371       -0.6229339530
 C          2.4936731462       -0.7422606425       -1.3407610051
 C          3.1175843447       -2.0725308111       -1.6630521707
 C          2.9610637499       -3.1009907785       -0.5339765022
 C          3.8687985805       -2.8761798077        0.6760708175
 H          3.8416078546       -3.7918860370        1.2703747650
 H          4.8971208225       -2.7338612511        0.3406625113
 C          3.4455554663       -1.7016168683        1.5696492892
 H          3.4911770811       -2.0100473799        2.6173531761
 H          2.4023930889       -1.4449115452        1.3654949475
 C          4.3135725676       -0.4500857298        1.4316727414
 H          3.8883390926        0.3291244488        2.0695348192
 H          5.3237609994       -0.6653566428        1.7888591543
 C          4.4098215103        0.1064602563        0.0056210263
 H          4.8560467732        1.1029197374        0.0582644853
 H          5.0485061404       -0.5316664425       -0.6049803943
 H          3.1813386102       -4.0865095873       -0.9517618579
 H          1.9199696561       -3.1014691636       -0.1991642969
 H          2.6086536989       -2.4514218818       -2.5520778170
 H          4.1747394678       -1.9419693688       -1.8961359073
 O          1.2543329099       -0.6322260258       -1.8789945690
 C          0.4489504861        0.4718194718       -1.6305155655
 O         -0.6818606596        0.3777455760       -2.1480568293
 H         -1.3173819984        0.5186705799        0.0918602703
 C         -1.2345426027        1.1684465300        0.9474362792
 C         -0.5577608218        2.3739063690        0.8356326794
 C         -0.4906796376        3.2041904685        1.9475970779
 C         -1.0653994189        2.8186582417        3.1465312012
 C         -1.6783791825        1.5844973113        3.2710706065
 C         -1.7518905705        0.7495418721        2.1621180553
 N         -2.3268116558       -0.5284389041        2.2322570545
 S         -1.6013819026       -1.7733717765        1.3678664615
 O         -1.9869338679       -2.9747731553        2.0839879751
 O         -0.1784645233       -1.5699447317        1.2221614482
 C         -2.4187964588       -1.7906861377       -0.2113811046
 C         -1.7485500584       -2.3263053740       -1.2915152779
 C         -2.3967654979       -2.4022432889       -2.5132812861
 C         -3.6982852475       -1.9433999405       -2.6321357988
 C         -4.3587820971       -1.4091916069       -1.5366820955
 C         -3.7175091326       -1.3342691457       -0.3111891820
 H         -4.1982638756       -0.9177174763        0.5583454215
 H         -5.3695182435       -1.0464067622       -1.6346609054
 H         -4.1976822374       -1.9965820385       -3.5868767450
 H         -1.8774656844       -2.8068517764       -3.3672224548
 H         -0.7280396107       -2.6527417710       -1.1648246443
 H         -2.6023908261       -0.8282243672        3.1563674165
 H         -2.0856626492        1.2641388011        4.2178703951
 H         -1.0075157508        3.4724433115        4.0035681217
 H          0.0369624068        4.1436998363        1.8771618063
 C          0.1395730269        2.7194915385       -0.4608443477
 H          0.8558854887        3.5256706323       -0.2500823029
 C         -0.8489472058        3.2110697917       -1.4972853778
 C         -1.3205002972        4.6321751629       -1.4355902583
 C         -0.3987606135        4.1950144234       -2.5333990942
 H         -0.7903441119        4.1002673797       -3.5346930464
 H          0.6300700968        4.5227060407       -2.4969158795
 H         -2.3497677878        4.8422743430       -1.6817352673
 H         -0.9165446802        5.2622633470       -0.6578577052
 H         -1.5593354894        2.4553139485       -1.8047526764
 O          2.8101529441        2.4071733537        0.3111847569
