  62
        -98.94293687
 C         -2.0013399194       -0.5173555175        0.0452114089
 C         -2.6210179066        0.7503322098        0.2037883837
 C         -3.9863043182        0.8840792854       -0.3186667501
 C         -4.5620741312       -0.1710627894       -0.9226908305
 C         -5.9647649449       -0.1971659410       -1.4552881066
 C         -6.9541188062       -0.6916133577       -0.3907423116
 C         -6.8069289765        0.0070125509        0.9609743377
 H         -7.5744585204       -0.3997296300        1.6229785831
 H         -5.8383992804       -0.2537579079        1.3937095482
 C         -6.9394597771        1.5352954649        0.9033366195
 H         -7.4239590163        1.8307784469       -0.0279724542
 H         -7.5840328227        1.8623964078        1.7219416523
 C         -5.6179818752        2.2925505767        1.0480889425
 H         -5.0840293051        1.9334211906        1.9316475411
 H         -5.8471721340        3.3489057698        1.2126183748
 C         -4.6678576149        2.2132410860       -0.1536595826
 H         -5.2038912769        2.4868369466       -1.0649253191
 H         -3.8679895881        2.9424503397        0.0060965293
 H         -7.9680128040       -0.5472600444       -0.7682686066
 H         -6.7957018745       -1.7620659409       -0.2414815018
 H         -6.2400859353        0.8023393215       -1.7863192796
 H         -5.9954666969       -0.8749191525       -2.3099973772
 O         -3.9349022943       -1.3622247420       -1.0742595679
 C         -2.6487359392       -1.5741389404       -0.5961818213
 O         -2.2264376322       -2.7259845706       -0.8137825156
 H          1.3068763030        1.2519113918        0.4409905258
 C          1.3607686299        0.5515305741       -0.3789404720
 C          0.4531222794       -0.4943562239       -0.4639639281
 C          0.5416095649       -1.3719710415       -1.5405434139
 C          1.5130960784       -1.1964241952       -2.5082588136
 C          2.4268191600       -0.1608596009       -2.4119742237
 C          2.3501091778        0.7182784487       -1.3393617450
 N          3.2682265856        1.7783363620       -1.2064367528
 S          4.1793454544        1.8684495974        0.1955960091
 O          3.3212033944        2.1055605132        1.3269520585
 O          5.1845095156        2.8713915415       -0.0749291007
 C          4.9473996657        0.2630767147        0.3257363221
 C          4.2264557828       -0.7863305266        0.8604246246
 C          4.8028677462       -2.0463496257        0.8900866913
 C          6.0822724657       -2.2346353145        0.3902063646
 C          6.7944763778       -1.1697444537       -0.1405908750
 C          6.2213377820        0.0910184490       -0.1798216280
 H          6.7389242214        0.9480023237       -0.5796802711
 H          7.7905149214       -1.3183305245       -0.5254799540
 H          6.5261397452       -3.2172893818        0.4162843090
 H          4.2469688960       -2.8736386974        1.3010674880
 H          3.2349352606       -0.6064432039        1.2423165895
 H          3.8717164028        1.8950372893       -2.0086553568
 H          3.1889074811       -0.0289340367       -3.1652644771
 H          1.5655627313       -1.8792275103       -3.3425780987
 H         -0.1679927527       -2.1811219352       -1.6172983940
 C         -0.5973451428       -0.6601385844        0.6085127902
 H         -0.4861943181        0.1794877215        1.3088343204
 C         -0.3782730950       -1.9503741411        1.3744627899
 C          0.6636175628       -1.9864479505        2.4504673996
 C         -0.7905203840       -2.0261214979        2.8123100834
 H         -1.2092395534       -2.9508413724        3.1796639074
 H         -1.2295994950       -1.1429086196        3.2537863894
 H          1.2473052960       -2.8854554164        2.5743725961
 H          1.2057902693       -1.0745768599        2.6556437919
 H         -0.5157508955       -2.8387701429        0.7724808591
 O         -2.0562726062        1.7272295435        0.7669612884
