  62
        -98.93710596
 C         -2.6323699916       -0.0096019870        0.1782597105
 C         -2.1304320798        0.7940590992       -0.8725118991
 C         -1.7652217138        2.1835757126       -0.5262241237
 C         -1.8804853857        2.6082467513        0.7444332214
 C         -1.6075915836        3.9537691536        1.3855993416
 C         -0.8717849142        5.0492903709        0.6200749412
 C          0.6083960327        4.7633146736        0.3648202521
 H          0.9979395250        5.5370194737       -0.3003533885
 H          1.1432310857        4.8389632185        1.3148412100
 C          0.9287241980        3.3935778233       -0.2295857819
 H          2.0158214488        3.3126363314       -0.3265501841
 H          0.6206072096        2.6005737479        0.4559384304
 C          0.3278997719        3.1124194551       -1.6050592774
 H          0.7341998782        2.1543366061       -1.9424502500
 H          0.6446856160        3.8826519209       -2.3122942804
 C         -1.2050071424        3.0081439915       -1.6497368172
 H         -1.6681368343        3.9919729066       -1.6757560497
 H         -1.4769043737        2.4904859840       -2.5746832607
 H         -1.3875393694        5.2670138662       -0.3104894606
 H         -0.9309341012        5.9522283736        1.2339800253
 H         -2.5878035227        4.3392958423        1.6876434262
 H         -1.0640292765        3.7359200032        2.3106189484
 O         -2.3640863664        1.7936284569        1.7288167505
 C         -2.7240758063        0.4849389077        1.4804272666
 O         -3.1256610703       -0.1330699010        2.4888893629
 H         -0.4297567164       -1.1033783042       -0.7887857815
 C         -0.5375346657       -1.9744695701       -0.1609596870
 C         -1.7836851562       -2.3353988273        0.3274977819
 C         -1.8858480465       -3.4778123213        1.1130116762
 C         -0.7621314481       -4.2243728173        1.4189528619
 C          0.4870657373       -3.8292574149        0.9754627568
 C          0.5976415758       -2.6926827486        0.1827635917
 N          1.8446819000       -2.2422935484       -0.2792010106
 S          2.0780542210       -0.5640474761       -0.3190839358
 O          1.4123014447        0.0538601070        0.8045058818
 O          1.7347791295       -0.0853595880       -1.6331818524
 C          3.8483198316       -0.4803466233       -0.1113797198
 C          4.3735484979       -0.2100202395        1.1376984140
 C          5.7506805612       -0.1804639301        1.2942587705
 C          6.5743888300       -0.4248829875        0.2057712324
 C          6.0325817321       -0.6943552402       -1.0424454394
 C          4.6568141557       -0.7230561814       -1.2061561182
 H          4.1893004919       -0.9170148146       -2.1574554465
 H          6.6759068401       -0.8808947166       -1.8870598613
 H          7.6454044342       -0.4023438040        0.3305269067
 H          6.1739981312        0.0326903139        2.2625613189
 H          3.6926335970       -0.0198052277        1.9519980704
 H          2.6231166664       -2.7203594710        0.1541280594
 H          1.3695780018       -4.3905565731        1.2425305162
 H         -0.8554859774       -5.1079868719        2.0317937691
 H         -2.8504062679       -3.7655806994        1.5037724057
 C         -2.9950533646       -1.4791549496        0.0346965209
 H         -3.7383445893       -1.6835028630        0.8191634691
 C         -3.5990644946       -1.8554245049       -1.3032335494
 C         -4.5277261474       -3.0284424605       -1.3827983506
 C         -5.0622725384       -1.6369376555       -1.5373481683
 H         -5.3807567302       -1.3058559203       -2.5140316201
 H         -5.6389676494       -1.2182920099       -0.7251449551
 H         -4.4801268391       -3.6608920536       -2.2557326086
 H         -4.7524559851       -3.5557966123       -0.4682983013
 H         -2.9314549198       -1.6816290813       -2.1367592162
 O         -1.9931411164        0.4027349669       -2.0625244638
