  62
        -98.93825864
 C          2.1999864513        1.0048047329        0.5723812908
 C          2.3937353997        0.1875377856       -0.5662545147
 C          3.2028524640       -1.0279639601       -0.3643691068
 C          3.6651845042       -1.3193371235        0.8632795262
 C          4.4690215095       -2.5172504700        1.3039268253
 C          5.6200715861       -2.9712029465        0.3951958548
 C          6.3281080578       -1.8442531131       -0.3709401983
 H          6.0207760253       -0.8736213391        0.0218911918
 H          7.4048597169       -1.9328212786       -0.2155002935
 C          6.0661808801       -1.8910162109       -1.8783165575
 H          6.8544331191       -1.3329328706       -2.3891411462
 H          6.1312088697       -2.9286674373       -2.2127817607
 C          4.7301144557       -1.3031037722       -2.3311921200
 H          4.6174624297       -1.5052447450       -3.3989902380
 H          4.7431614258       -0.2165818009       -2.2103788928
 C          3.4891620632       -1.8365901200       -1.5966590782
 H          2.6237755509       -1.7020651488       -2.2518902303
 H          3.5888971311       -2.8955368004       -1.3701396486
 H          5.2515477764       -3.7074077631       -0.3178753802
 H          6.3402096218       -3.4858905886        1.0335136926
 H          3.7790523762       -3.3533989106        1.4520902153
 H          4.8630839488       -2.2479695557        2.2868847636
 O          3.4108645520       -0.5263858090        1.9436681682
 C          2.6841200463        0.6463202716        1.8283879670
 O          2.5323607739        1.2654811088        2.9020168611
 O          1.9132538202        0.4524516899       -1.6982093598
 C          1.4027509841        2.2923837040        0.4592402201
 C         -0.0090511537        1.9807035407        0.0236205299
 C         -0.6462752439        2.6114804511       -1.0359390165
 C         -1.9393151023        2.2593181989       -1.3838547316
 C         -2.6258528835        1.2862398358       -0.6817527962
 C         -1.9995887348        0.6523411263        0.3839243221
 C         -0.7043245279        1.0051578730        0.7282680960
 H         -0.2141698899        0.5080742424        1.5575281277
 N         -2.6944003528       -0.3240845342        1.1200701728
 S         -3.4534954611       -1.5640336934        0.2783020784
 O         -3.5359903277       -2.6601991241        1.2196120734
 O         -2.7916927484       -1.8415846254       -0.9753380064
 C         -5.0918023783       -0.9317210790       -0.0175042370
 C         -5.8383128336       -0.5242588069        1.0708267889
 C         -7.1167210033       -0.0334861249        0.8590520294
 C         -7.6253700963        0.0379784718       -0.4294022455
 C         -6.8649239484       -0.3792070174       -1.5110211267
 C         -5.5846854098       -0.8702303858       -1.3061975968
 H         -4.9543050006       -1.2008370595       -2.1164659700
 H         -7.2620516194       -0.3235943516       -2.5118543509
 H         -8.6204725827        0.4210518858       -0.5915439633
 H         -7.7110926856        0.2914176682        1.6977522274
 H         -5.4073551810       -0.6004485987        2.0551293782
 H         -2.1633752184       -0.6980444936        1.8934909323
 H         -3.6309637789        1.0079275519       -0.9528903342
 H         -2.4200315560        2.7515558696       -2.2154126794
 H         -0.1278932580        3.3708022591       -1.5974904623
 H          1.3577406523        2.7098409930        1.4759436447
 C          2.1172657745        3.2773868874       -0.4415124906
 C          1.9235623490        4.7505290033       -0.2487769578
 C          3.2232244828        4.1093568974        0.1322019231
 H          4.0937459892        4.3012504428       -0.4770112947
 H          3.4457185441        3.9824518186        1.1820428475
 H          1.9045327357        5.3869547820       -1.1204518734
 H          1.2645313854        5.0680244037        0.5449635491
 H          2.2455561240        2.9024011502       -1.4502275964
