  62
        -98.93878281
 C         -2.8762718180       -0.8355571351        0.2514674594
 C         -2.5428608386       -0.0795928974       -0.8995755455
 C         -2.8643223311        1.3541786997       -0.8373799884
 C         -3.5261441407        1.8412395989        0.2257022120
 C         -3.9095829213        3.2767772919        0.4684048910
 C         -2.7630555174        4.3045882995        0.3769137480
 C         -1.3447919832        3.7437732714        0.5695312783
 H         -0.8029700036        4.3886344660        1.2646663676
 H         -1.3845863104        2.7496161890        1.0192585013
 C         -0.5317597657        3.6888129205       -0.7281994024
 H          0.5311457632        3.6344097128       -0.4734448407
 H         -0.6913085135        4.6228214309       -1.2721970619
 C         -0.8190603701        2.5115333439       -1.6626672786
 H         -0.3577903821        1.6019930343       -1.2644783971
 H         -0.3189750831        2.7129687403       -2.6133999027
 C         -2.3022191728        2.2107787904       -1.9329466217
 H         -2.8712518905        3.1286482881       -2.0622492891
 H         -2.3600947967        1.6226409018       -2.8525735344
 H         -2.9511282742        5.0641628935        1.1367212911
 H         -2.8048543188        4.8066275392       -0.5890338427
 H         -4.3439322194        3.2958115836        1.4697557934
 H         -4.6967803831        3.5518207882       -0.2372429831
 O         -3.9428090880        1.0505481054        1.2532178354
 C         -3.5730618104       -0.2853215274        1.3240911624
 O         -3.9172575114       -0.8605562095        2.3768105870
 O         -1.9800339292       -0.5682534525       -1.9122751352
 C         -2.3659200983       -2.2588668235        0.3791147713
 C         -0.8638417177       -2.2535407354        0.2012221716
 C         -0.1745953648       -3.2332197296       -0.5011665656
 C          1.1967322237       -3.1418363127       -0.6712981947
 C          1.9095442566       -2.0754599263       -0.1549116748
 C          1.2316117525       -1.0945320775        0.5564291387
 C         -0.1359893622       -1.2031529835        0.7468467396
 H         -0.6553949629       -0.4317507598        1.3046436248
 N          1.9392925188        0.0082433619        1.0729549613
 S          2.8225917560        0.9261816718       -0.0306985733
 O          2.8096024131        2.2734678000        0.4968486486
 O          2.3392498597        0.7517338510       -1.3783611121
 C          4.4655777608        0.2566231013        0.1186756579
 C          5.0701211991       -0.3339279525       -0.9732971664
 C          6.3456016358       -0.8583596618       -0.8309385001
 C          6.9898935346       -0.7829887606        0.3943886228
 C          6.3698923534       -0.1838171656        1.4809609811
 C          5.0953346356        0.3423141426        1.3448735298
 H          4.5796669122        0.8204634780        2.1609435295
 H          6.8745750828       -0.1259930549        2.4318705131
 H          7.9815877407       -1.1928302834        0.5031123077
 H          6.8295534549       -1.3232934614       -1.6748365580
 H          4.5288359794       -0.3708829186       -1.9054688606
 H          1.3631277077        0.6188414163        1.6351168684
 H          2.9733342724       -1.9871769768       -0.3048646425
 H          1.7160952397       -3.9081473212       -1.2262403522
 H         -0.7145165700       -4.0614526137       -0.9302613316
 H         -2.5960899323       -2.5791867254        1.4061638104
 C         -3.0798576648       -3.1773244140       -0.5905307124
 C         -3.3085972412       -4.6169928261       -0.2430544223
 C         -4.4575549293       -3.6553818018       -0.2466757258
 H         -5.1907544616       -3.7260207581       -1.0359320397
 H         -4.8668270415       -3.3389894324        0.7019649583
 H         -3.2567589298       -5.3519682846       -1.0321377826
 H         -2.9455538590       -4.9657944962        0.7119155234
 H         -2.8804621445       -2.9213459383       -1.6247888331
