  62
        -98.95136438
 C          1.8272745792        1.2456279207       -0.2867903405
 C          2.9132057293        0.5555149706        0.2988423392
 C          3.2200690588       -0.7573436795       -0.2773411007
 C          2.4909975884       -1.2209709396       -1.3089680904
 C          2.6675333079       -2.5502725697       -1.9902322002
 C          1.9495271080       -3.6981498094       -1.2667685498
 C          2.6251532783       -4.1736507794        0.0201627301
 H          3.6829712082       -4.3618619496       -0.1694919203
 H          2.1652801583       -5.1266920692        0.2893964604
 C          2.4726212589       -3.2068124991        1.2028125400
 H          2.1997738191       -3.7702088190        2.0989807102
 H          1.6459468690       -2.5197087290        1.0032509602
 C          3.7322278692       -2.4071302093        1.5388967594
 H          4.5135988592       -3.0869640494        1.8874622892
 H          3.4922096496       -1.7225202691        2.3567582994
 C          4.2912880689       -1.5780228296        0.3754496791
 H          4.7697524585       -2.2301779898       -0.3548545410
 H          5.0401070592       -0.8897159497        0.7759918687
 H          1.8942016476       -4.5415834395       -1.9593663296
 H          0.9284606081       -3.3809228492       -1.0379197395
 H          3.7286090178       -2.7820833099       -2.0876957206
 H          2.2380305676       -2.4490567298       -2.9892218701
 O          1.4854592283       -0.5060359095       -1.8753016801
 C          1.0960330787        0.7125955907       -1.3475302502
 O          0.1100303486        1.2265539808       -1.9127070899
 O          3.5859303297        1.0116186407        1.2642312289
 C          1.3653451097        2.5582719209        0.3186631094
 C         -0.0759516102        2.4320077712        0.7499939000
 C         -1.0135812101        3.4460459314        0.5980630202
 C         -2.3305629900        3.2485812017        0.9774965007
 C         -2.7468690100        2.0323149118        1.4875569210
 C         -1.8132388001        1.0165946717        1.6545614008
 C         -0.4877482402        1.2345016614        1.3210243303
 H          0.2226893697        0.4334185913        1.4647000502
 N         -2.1780227402       -0.2621645382        2.1306412212
 S         -2.0420876108       -1.5125278284        1.0165888513
 O         -2.5276506008       -2.6880003382        1.7081823617
 O         -0.6969789010       -1.5808085387        0.5109609408
 C         -3.1993939712       -1.0621445583       -0.2639304783
 C         -4.4808344713       -1.5763311681       -0.1970142778
 C         -5.4183327515       -1.1696867581       -1.1317290175
 C         -5.0629829017       -0.2492178383       -2.1067389578
 C         -3.7746563316        0.2593480215       -2.1570057284
 C         -2.8279869714       -0.1462748086       -1.2275204586
 H         -1.8183127513        0.2347480812       -1.2561071890
 H         -3.4896292018        0.9747193513       -2.9117362086
 H         -5.7927807419        0.0731538617       -2.8326364376
 H         -6.4199212816       -1.5670026379       -1.0956041371
 H         -4.7083969511       -2.2909752879        0.5776436624
 H         -3.1031782401       -0.2929090879        2.5383479715
 H         -3.7807095200        1.8663016121        1.7509330314
 H         -3.0471068999        4.0457234218        0.8516574708
 H         -0.7141547601        4.3902049313        0.1730471599
 H          1.9884068900        2.7066534909        1.2137582292
 C          1.6049192195        3.7067177007       -0.6396721108
 C          1.9207369000        5.0770779907       -0.1207920812
 C          2.9918852596        4.2577172104       -0.7734816214
 H          3.3403168293        4.5451689602       -1.7540585516
 H          3.7581513097        3.8219319504       -0.1489778516
 H          1.5362806399        5.9323146007       -0.6558825312
 H          1.9680135504        5.2086909409        0.9496471888
 H          1.0104484692        3.6224633107       -1.5425422306
