  62
        -98.94801599
 C         -1.2763613297       -1.0257172598       -0.0524272605
 C         -1.6355368196        0.0433957501        0.8021801197
 C         -2.6895775295        0.9339140103        0.3067448499
 C         -3.1969441196        0.7443719105       -0.9247170702
 C         -4.2565404995        1.5852308307       -1.5839579800
 C         -5.6910526795        1.2020648408       -1.1942955900
 C         -6.1080197695        1.5937807705        0.2239077800
 H         -5.8948203694        2.6511573605        0.3840859002
 H         -7.1905906195        1.4664209106        0.2856042800
 C         -5.4490329295        0.7597832903        1.3313284599
 H         -6.2061097795        0.4562439702        2.0577655298
 H         -5.0332599296       -0.1537580497        0.9002398097
 C         -4.3477302395        1.4876967301        2.1021529500
 H         -4.7766468894        2.3330000300        2.6447588102
 H         -3.9271555695        0.7948033599        2.8352266499
 C         -3.1996262694        2.0035734501        1.2244134801
 H         -3.5223753594        2.8732962703        0.6519766002
 H         -2.3742380994        2.3045091999        1.8747866501
 H         -5.8115791196        0.1242731608       -1.3255348002
 H         -6.3624326495        1.6997543409       -1.8978505199
 H         -4.0825837494        2.6375541207       -1.3561332298
 H         -4.1409030695        1.4411057009       -2.6605173500
 O         -2.7752646697       -0.2542151194       -1.7456185504
 C         -1.8152662397       -1.1672200995       -1.3306894805
 O         -1.5337804298       -2.0351066494       -2.1791686707
 H          0.8357806504        0.2234970302       -0.6057451003
 C          1.4298517503       -0.6389469098       -0.8652786005
 C          1.0174925002       -1.9018970399       -0.4638331507
 C          1.7820033701       -2.9982335199       -0.8431391409
 C          2.9188351002       -2.8240067898       -1.6136997709
 C          3.3347468402       -1.5614187598       -1.9958480707
 C          2.5800133703       -0.4577072198       -1.6152721705
 N          2.9619946504        0.8460044502       -1.9662837102
 S          2.7114600305        2.0889346901       -0.8742687900
 O          1.3211935106        2.4701072102       -0.8527456099
 O          3.6385347406        3.1193733101       -1.2931953998
 C          3.2269336705        1.4212010797        0.6982486299
 C          2.3071912205        1.0968688096        1.6738999398
 C          2.7594558305        0.5275657794        2.8547324697
 C          4.1125307305        0.2946355192        3.0407738396
 C          5.0258648505        0.6352655393        2.0540750597
 C          4.5805905205        1.2007602696        0.8713649998
 H          5.2592204805        1.4902424197        0.0855471398
 H          6.0789790905        0.4589990692        2.2023081596
 H          4.4560098404       -0.1521249810        3.9604597596
 H          2.0410329205        0.2665717093        3.6156063297
 H          1.2561804405        1.2794953897        1.5117858499
 H          3.8575722204        0.9204442903       -2.4256943602
 H          4.2260930102       -1.4284825497       -2.5893160507
 H          3.4968447301       -3.6850999798       -1.9126244111
 H          1.4835821001       -3.9891863099       -0.5428968511
 C         -0.2124147698       -2.0048372399        0.4050020693
 H          0.0706115703       -1.6721992402        1.4160560093
 C         -0.7752146899       -3.4079882599        0.4952733390
 C         -0.2642088499       -4.3639337902        1.5303810689
 C         -1.6308549299       -3.7666794301        1.6722999890
 H         -2.4925902499       -4.3967598000        1.5107720789
 H         -1.7829050298       -3.0056707602        2.4240079491
 H         -0.1892319900       -5.4098141701        1.2734845987
 H          0.5109808601       -4.0141712703        2.1951565889
 H         -1.0648601699       -3.8021272897       -0.4721439510
 O         -1.0965756596        0.2443948498        1.9244488197
