  62
        -98.93902820
 C          0.9888979017        1.5598184069        0.2188869402
 C          1.3205236238        0.5767471512       -0.7439745001
 C          2.3982077211       -0.3546836657       -0.3720272347
 C          2.9291447486       -0.2951716925        0.8616450907
 C          4.0810957768       -1.1212491219        1.3588964028
 C          5.4063243598       -0.5418615252        0.8230746809
 C          6.1492465292       -1.4595735715       -0.1486119614
 H          6.9344395730       -0.8660956666       -0.6219322453
 H          6.6365754312       -2.2559732578        0.4178840169
 C          5.2954209447       -2.1164557867       -1.2380264198
 H          4.7718617289       -2.9791607805       -0.8236683388
 H          5.9860225399       -2.5046481631       -1.9897620766
 C          4.2726568218       -1.2075667402       -1.9324581376
 H          4.5792842247       -0.1634118734       -1.8657340829
 H          4.2557088883       -1.4655078341       -2.9933153034
 C          2.8302479820       -1.3521627440       -1.4102605011
 H          2.1381213426       -1.2088012649       -2.2446986434
 H          2.6805544271       -2.3654635454       -1.0309381965
 H          5.1909226739        0.4102503529        0.3333908576
 H          6.0717517614       -0.3199513976        1.6587663013
 H          3.9644252333       -2.1547221591        1.0407296104
 H          4.0644431896       -1.0831904186        2.4483150472
 O          2.5162487968        0.5992316804        1.7953735710
 C          1.5690925787        1.5591451135        1.4920408809
 O          1.3242597651        2.3474353973        2.4265472446
 O          0.7657706691        0.4633818188       -1.8706696496
 C         -0.0174535573        2.6752878937       -0.0273635999
 C         -1.4297716178        2.1834765298        0.1721990885
 C         -2.2344808436        2.7020257914        1.1794987628
 C         -3.5190087315        2.2231561968        1.3752444909
 C         -4.0227925346        1.2111674665        0.5771329592
 C         -3.2202809447        0.6816385749       -0.4245877566
 C         -1.9409140728        1.1737950513       -0.6311515932
 H         -1.3194647288        0.7500743846       -1.4063790696
 N         -3.7049689423       -0.3971895047       -1.2034234605
 S         -3.7831246102       -1.8520527972       -0.3770862513
 O         -4.1173308352       -2.8542308646       -1.3623982237
 O         -4.7027774054       -1.7044630204        0.7217354497
 C         -2.1348237485       -2.1393568590        0.2461785319
 C         -1.7027703668       -1.4349584204        1.3528393904
 C         -0.4085837859       -1.6309743136        1.8065039504
 C          0.4221626642       -2.5319297157        1.1591459863
 C         -0.0265506872       -3.2307097240        0.0495339020
 C         -1.3130980869       -3.0253268772       -0.4202547426
 H         -1.7009080638       -3.5456666842       -1.2813286687
 H          0.6204558099       -3.9323188735       -0.4520788392
 H          1.4237505671       -2.6870829825        1.5277851263
 H         -0.0506165820       -1.0744267196        2.6591101998
 H         -2.3771894752       -0.7550079416        1.8477750299
 H         -3.1629992214       -0.5368643628       -2.0461599982
 H         -5.0085274381        0.8043870301        0.7331382199
 H         -4.1320203445        2.6372588130        2.1613640654
 H         -1.8402662627        3.4741867583        1.8240521042
 H          0.1846019868        3.4297587336        0.7445199902
 C          0.1435064381        3.3278968842       -1.3869770158
 C         -0.3865812383        4.7132936098       -1.5941540573
 C          1.0924709009        4.4762038898       -1.5415464359
 H          1.6624696740        4.5539098694       -2.4552010495
 H          1.6304547457        4.8028356863       -0.6632172838
 H         -0.8354330999        4.9560893509       -2.5450407011
 H         -0.8510579590        5.2030821003       -0.7516614130
 H          0.0695758396        2.6316523587       -2.2115785738
