  62
        -98.94173604
 C         -2.2560048305       -0.7471379661        0.0720254157
 C         -3.4334924120       -1.0562278532        0.8037527830
 C         -4.3734072994        0.0487111273        1.0297561334
 C         -4.0517902033        1.2806962690        0.5965765704
 C         -4.9338464779        2.4890691958        0.7136206123
 C         -5.8257394776        2.6466388401       -0.5259915277
 C         -6.5608936146        1.3670633361       -0.9254295672
 H         -7.1809822200        1.6059463881       -1.7921611839
 H         -5.8298665560        0.6228070155       -1.2498327832
 C         -7.4384593048        0.7665328064        0.1817634724
 H         -8.4013778035        0.4847309333       -0.2493237263
 H         -7.6338961879        1.5180713847        0.9474555121
 C         -6.8605701372       -0.4880911054        0.8393853720
 H         -6.5785694381       -1.2090331827        0.0677546565
 H         -7.6468924291       -0.9477545479        1.4438727929
 C         -5.6513195098       -0.2641332708        1.7561411356
 H         -5.8811338221        0.5165094907        2.4840846430
 H         -5.4669984613       -1.1963765349        2.2979610630
 H         -6.5504194468        3.4392291282       -0.3310544358
 H         -5.1993334995        2.9581903102       -1.3652682243
 H         -5.5481387002        2.3987049644        1.6074551658
 H         -4.2977926240        3.3709117099        0.8080233559
 O         -2.8899982686        1.5543670662       -0.0466083462
 C         -1.9671110432        0.5555245402       -0.3398212361
 O         -0.9686014316        0.9720484017       -0.9567796817
 O         -3.6864516598       -2.2076106416        1.2474966250
 C         -1.2845080567       -1.8883463108       -0.1800870337
 C          0.1006933869       -1.4919568716        0.2593324703
 C          0.4279273126       -1.5348279763        1.6112667412
 C          1.6756646820       -1.1310494183        2.0474177651
 C          2.6179277890       -0.6649266801        1.1470264139
 C          2.2925159182       -0.5974867138       -0.2005690431
 C          1.0481737876       -1.0306221432       -0.6397822189
 H          0.8007106385       -0.9638862463       -1.6877430220
 N          3.2345711658       -0.1149731421       -1.1234784661
 S          4.1458151835        1.2375027152       -0.7314449791
 O          3.4578763959        2.1208937336        0.1808089927
 O          4.5408900311        1.8038775014       -2.0032424726
 C          5.5873603177        0.5477654283        0.0587160511
 C          6.2792648989       -0.4492441881       -0.6009391464
 C          7.4081205970       -0.9880499193       -0.0048759973
 C          7.8266274830       -0.5216694600        1.2324628030
 C          7.1240500767        0.4825609621        1.8803006802
 C          5.9932782869        1.0250330951        1.2894673943
 H          5.4128162219        1.8038828820        1.7584355674
 H          7.4507263243        0.8450926397        2.8417554883
 H          8.7055172500       -0.9428742268        1.6944778482
 H          7.9570298652       -1.7690517333       -0.5058852474
 H          5.9232171054       -0.7814885529       -1.5616258917
 H          2.8712507744       -0.0386234811       -2.0627333420
 H          3.5867955101       -0.3325328652        1.4819637055
 H          1.9178279732       -1.1741483040        3.0984982518
 H         -0.3139315879       -1.8799178070        2.3182828701
 H         -1.6361926119       -2.6920021275        0.4868231880
 C         -1.3198210593       -2.4546138128       -1.5920449225
 C         -2.6243072234       -2.6103205821       -2.3134358039
 C         -1.6079317623       -1.6268843888       -2.8070343859
 H         -1.0739654326       -1.8579795794       -3.7176928711
 H         -1.7980970490       -0.5736376657       -2.6721178063
 H         -2.7959988187       -3.5087507554       -2.8866248857
 H         -3.5082358670       -2.2267083939       -1.8248136072
 H         -0.6004829280       -3.2585765740       -1.7163915142
