  62
        -98.94357407
 C         -2.5553599642       -0.0130915460       -0.1339513219
 C         -2.4333588444       -1.1604509032       -0.9569512476
 C         -1.9451082541       -2.3796591294       -0.3056839158
 C         -1.6408699330       -2.3570545805        1.0042319241
 C         -1.1227278224       -3.5132247294        1.8154725156
 C          0.3980751165       -3.6919589070        1.7114390651
 C          0.8876274748       -4.2890415109        0.3914319392
 H          1.9269186167       -4.5887652115        0.5397292975
 H          0.3156461612       -5.1895254491        0.1634313532
 C          0.8229590514       -3.3198469048       -0.7970008433
 H          0.7461401095       -2.2926450761       -0.4306086745
 H          1.7551723557       -3.3723515639       -1.3654078867
 C         -0.3156616938       -3.5855940069       -1.7825619985
 H         -0.1538073015       -4.5456117844       -2.2791447936
 H         -0.2866291515       -2.8012184822       -2.5438555566
 C         -1.7169471995       -3.5918003992       -1.1577329228
 H         -2.4512139456       -3.5721177584       -1.9672780424
 H         -1.8634134183       -4.4999574164       -0.5728854064
 H          0.8716629039       -2.7184258264        1.8632657428
 H          0.7086837113       -4.3512942416        2.5254594166
 H         -1.3762697121       -3.3010797367        2.8563621843
 H         -1.6241779398       -4.4331974395        1.5133104501
 O         -1.7885602215       -1.2441248199        1.7667763409
 C         -2.1818078563       -0.0350650822        1.2119655425
 O         -2.1788274213        0.9106532531        2.0227795529
 O         -2.7141027582       -1.1619962852       -2.1872455314
 C         -2.9061416936        1.3046075479       -0.8073800795
 C         -1.8344584672        2.3040198437       -0.4492978828
 C         -2.0681017442        3.5415208873        0.1327361102
 C         -1.0039980699        4.3452773968        0.5071217409
 C          0.3017702435        3.9255143119        0.3351758729
 C          0.5444247264        2.6923534135       -0.2613869719
 C         -0.5202115649        1.9149527749       -0.6785372374
 H         -0.3234544954        0.9583447707       -1.1426429745
 N          1.8540933204        2.2174037870       -0.4574730354
 S          2.0910809197        0.5441606787       -0.3798505003
 O          1.8053179875       -0.0133688772       -1.6783182024
 O          1.3777719779       -0.0234128397        0.7417637479
 C          3.8484545826        0.4864574676       -0.0831346436
 C          4.3099840392        0.4267894363        1.2182512635
 C          5.6772789052        0.4188655415        1.4455105127
 C          6.5550165804        0.4739866152        0.3731135478
 C          6.0769725264        0.5318989731       -0.9276266863
 C          4.7109607268        0.5389053250       -1.1615465311
 H          4.2908008544        0.5740283749       -2.1531284018
 H          6.7621980077        0.5711692522       -1.7588872243
 H          7.6184188628        0.4684296523        0.5527577759
 H          6.0509879772        0.3697947837        2.4555514052
 H          3.5892334684        0.3763435224        2.0191236120
 H          2.5394325896        2.7184690209        0.0913377341
 H          1.1268021876        4.5384773926        0.6650757800
 H         -1.1964869286        5.3024296148        0.9679083522
 H         -3.0786750008        3.8624205742        0.3255237885
 H         -2.8196556886        1.0857510214       -1.8859787778
 C         -4.3239012355        1.8025133010       -0.5819708808
 C         -5.4302217619        0.8461537156       -0.2529858694
 C         -4.9659624261        1.8355159182        0.7712371749
 H         -5.6142904819        2.6669712867        1.0067649002
 H         -4.3848170825        1.4811347300        1.6072435223
 H         -6.3935463639        0.9947095743       -0.7173776711
 H         -5.1645033160       -0.1923039751       -0.1159280681
 H         -4.5779593544        2.6127682203       -1.2589498427
