  62
        -98.94045525
 C          2.1948168649        1.2773146855       -0.0533133732
 C          2.4592065744        0.0847938832       -0.7727356424
 C          3.8373693426       -0.4208559549       -0.6818751361
 C          4.7594105296        0.2510875663        0.0289364573
 C          6.2059248713       -0.1289479903        0.1921237011
 C          6.4577539117       -1.1553580276        1.3051568635
 C          5.9962364324       -2.5797888085        0.9939783352
 H          6.4071499326       -2.8923425217        0.0334521493
 H          6.4260516454       -3.2297611557        1.7587627161
 C          4.4722304227       -2.7656890784        0.9889780704
 H          4.2128327624       -3.6660791754        1.5504378633
 H          3.9998373088       -1.9240118379        1.5008959893
 C          3.8545703835       -2.9072635567       -0.4023790740
 H          4.2159581838       -3.8248859505       -0.8721294384
 H          2.7702674193       -2.9910553923       -0.2894893107
 C          4.1427894631       -1.7304496721       -1.3435914808
 H          3.4918783153       -1.8236120218       -2.2165074033
 H          5.1804054041       -1.7587378967       -1.6757410817
 H          7.5341842394       -1.1775780540        1.4901694240
 H          5.9707968115       -0.8064218382        2.2187340527
 H          6.5938463176       -0.5115806423       -0.7523129468
 H          6.7425705449        0.7887192640        0.4427206694
 O          4.4703758754        1.4024198556        0.6917424786
 C          3.1842589337        1.9175772273        0.6987592324
 O          3.0500099809        2.9392754604        1.4014522680
 O          1.6100176883       -0.5347854609       -1.4625526588
 C          0.8052533628        1.8914084913        0.0092308918
 C         -0.2068279171        0.8111281592        0.2990128013
 C         -0.2159694219        0.2252975371        1.5616693325
 C         -1.0999041607       -0.7933043089        1.8629786176
 C         -1.9945099059       -1.2496178361        0.9111204575
 C         -1.9950293055       -0.6697445055       -0.3504544135
 C         -1.1152426179        0.3640376141       -0.6466182028
 H         -1.1092515301        0.7879274118       -1.6384623119
 N         -2.8934593285       -1.1325155931       -1.3230398982
 S         -4.4657000667       -1.4782608231       -0.8846754145
 O         -4.5286384345       -2.7688745236       -0.2446198879
 O         -5.2355860431       -1.3391493284       -2.1009272904
 C         -4.9126109162       -0.2050016340        0.2832996715
 C         -4.8869198751        1.1076494378       -0.1450255586
 C         -5.2020013345        2.1128288988        0.7543499568
 C         -5.5350371087        1.7902186553        2.0612795110
 C         -5.5609026790        0.4676598644        2.4747738073
 C         -5.2453586406       -0.5418593798        1.5792330494
 H         -5.2526366624       -1.5826717275        1.8593668361
 H         -5.8226380536        0.2195621520        3.4907920822
 H         -5.7769146064        2.5752449251        2.7602632245
 H         -5.1844179376        3.1425305229        0.4350512021
 H         -4.6314656290        1.3237218781       -1.1698813714
 H         -2.8351159167       -0.6556672294       -2.2096681537
 H         -2.6734951647       -2.0602899543        1.1198684234
 H         -1.0892815437       -1.2423313403        2.8446274747
 H          0.4927260244        0.5720677816        2.3018370796
 H          0.8358785893        2.5669237772        0.8793308675
 C          0.4407264158        2.7529004063       -1.1904151531
 C          1.4842508793        3.5759528499       -1.8835208348
 C          0.8524544422        2.4166665514       -2.5909918107
 H          0.1578365962        2.6258080558       -3.3921050811
 H          1.4368241522        1.5234641167       -2.7441954781
 H          1.2266378940        4.5761663024       -2.1978653170
 H          2.5049195903        3.4745857824       -1.5439847712
 H         -0.5334888051        3.2169695908       -1.0683361194
