  62
        -98.93915722
 C         -2.4214645939       -1.2129787415       -0.0624552944
 C         -3.5214793909       -0.9244107865        0.7808623191
 C         -4.4697523885        0.0967554768        0.3043398143
 C         -4.2377406528        0.7003374176       -0.8742821880
 C         -5.0380815724        1.8011862100       -1.5139021504
 C         -4.4652735321        3.1790900494       -1.1402677966
 C         -5.0104379849        3.7732738806        0.1579115449
 H         -4.4344152936        4.6775977471        0.3672869527
 H         -6.0491916250        4.0739472295        0.0059388228
 C         -4.9407742655        2.8522647424        1.3786954453
 H         -3.9750638270        2.3435243269        1.3998007771
 H         -4.9959389358        3.4768677163        2.2723714606
 C         -6.0777791337        1.8205921116        1.4220721302
 H         -6.8352180396        2.0937867525        0.6878033050
 H         -6.5648599617        1.8603377983        2.3985404488
 C         -5.6466773746        0.3634500157        1.2030961635
 H         -5.3660819676       -0.0802719246        2.1634148364
 H         -6.5030720237       -0.2101832648        0.8333261219
 H         -3.3779439745        3.0838729584       -1.0745954206
 H         -4.6819266101        3.8794700799       -1.9495740688
 H         -4.9429888931        1.6668342967       -2.5934411094
 H         -6.0866222058        1.7241332396       -1.2422448464
 O         -3.1592467168        0.4023614990       -1.6500085838
 C         -2.2272358623       -0.5496724458       -1.2735804157
 O         -1.3040077012       -0.7091828128       -2.0960573972
 H          0.8246824269       -1.9985141999       -1.1698976963
 C          0.9224336362       -1.4977480268       -0.2198376523
 C         -0.1143022955       -1.5499787449        0.6978394267
 C          0.0266505616       -0.8656857011        1.9024789150
 C          1.1784449234       -0.1544083870        2.1793185963
 C          2.2105650437       -0.1011384718        1.2579223983
 C          2.0715542728       -0.7640002242        0.0467643218
 N          3.1077050879       -0.7091615210       -0.9008149470
 S          3.8205671930        0.7755705349       -1.2220420792
 O          2.9088078628        1.8745597659       -1.0022417878
 O          4.3693253512        0.6503263647       -2.5550657791
 C          5.1646048118        0.8531052351       -0.0541367085
 C          5.3294328017        1.9768952362        0.7316313945
 C          6.3895660337        2.0222350065        1.6238718952
 C          7.2624468094        0.9489048200        1.7133063189
 C          7.0848305878       -0.1714779984        0.9152387203
 C          6.0279469027       -0.2225329571        0.0205366261
 H          5.8564396713       -1.0732690583       -0.6173938402
 H          7.7652396033       -1.0045664715        0.9879895208
 H          8.0855672862        0.9858219855        2.4092842504
 H          6.5286538342        2.8928026231        2.2445941104
 H          4.6214309618        2.7844790333        0.6326205656
 H          2.8874199051       -1.1902636827       -1.7612516608
 H          3.1064320621        0.4623605072        1.4613007094
 H          1.2752414941        0.3673974139        3.1192825123
 H         -0.7878233089       -0.8896209590        2.6131525793
 C         -1.4151863629       -2.2534761268        0.4018101535
 H         -1.8164039242       -2.6426913077        1.3471552098
 C         -1.2888374327       -3.3978415704       -0.5813129032
 C         -0.6265338761       -4.6695515430       -0.1451392791
 C         -2.1072015548       -4.6351594073       -0.3721051365
 H         -2.5093520434       -5.1377843383       -1.2390023860
 H         -2.7584287463       -4.6630668898        0.4890762670
 H         -0.0097136144       -5.2001022883       -0.8542651376
 H         -0.2707591764       -4.7194580783        0.8726927977
 H         -1.1420993053       -3.0719610172       -1.6041292373
 O         -3.7031943813       -1.4959557843        1.8891875082
