  62
        -98.94263353
 C         -1.5811141938       -1.0640176566        0.2047735692
 C         -2.8199519890       -1.0643473512        0.8984422699
 C         -3.5907960141        0.1826429166        0.8534122719
 C         -3.0762262869        1.2607810609        0.2357021705
 C         -3.7228505203        2.6154504833        0.1330993869
 C         -4.7302498250        2.7399828746       -1.0182544459
 C         -6.0519248042        1.9994480397       -0.8100660398
 H         -6.4771773463        2.2806003421        0.1539125690
 H         -6.7399255839        2.3479254697       -1.5830226076
 C         -5.9429347656        0.4708036493       -0.9004515979
 H         -5.0049139091        0.2009590103       -1.3914151800
 H         -6.7519585117        0.0838986475       -1.5242858020
 C         -6.0235463628       -0.2511190184        0.4448555357
 H         -5.9003457142       -1.3227699051        0.2670679694
 H         -7.0111219664       -0.0961179239        0.8850306396
 C         -4.9607766825        0.1870755834        1.4611672142
 H         -5.2009414076        1.1750245994        1.8535322578
 H         -4.9607607190       -0.5278595772        2.2876463222
 H         -4.9509988439        3.8023893244       -1.1448594052
 H         -4.2568629333        2.3874676314       -1.9376186983
 H         -4.2140899539        2.8597277551        1.0753406807
 H         -2.9176444329        3.3331021093       -0.0362138254
 O         -1.8612759515        1.2413075326       -0.3685845455
 C         -1.0938030475        0.0816501972       -0.4293073137
 O         -0.0351215773        0.2256949072       -1.0652644568
 O         -3.2600735437       -2.0617963720        1.5296061179
 C         -0.7673682156       -2.3471587492        0.2435501128
 C          0.6360999848       -2.0302929347        0.6876712745
 C          0.9027737633       -1.8417114276        2.0400394663
 C          2.1663518160       -1.4766415711        2.4662340912
 C          3.1816296906       -1.2668833353        1.5498062917
 C          2.9179783204       -1.4327360472        0.1966926407
 C          1.6597340136       -1.8375018875       -0.2264099638
 H          1.4648968822       -1.9589642296       -1.2802877749
 N          3.9308815813       -1.1729761206       -0.7458548814
 S          4.7740585573        0.2658230553       -0.5809272532
 O          5.2863533361        0.5564302108       -1.9018854408
 O          5.7676317855        0.1130295723        0.4544293489
 C          3.5745586247        1.4910958723       -0.0908242279
 C          3.5723734461        1.9698879591        1.2037295824
 C          2.6054655982        2.8895962958        1.5742317790
 C          1.6641500312        3.3128179871        0.6485054707
 C          1.6865804951        2.8301579221       -0.6502303600
 C          2.6480530570        1.9068466642       -1.0248233687
 H          2.6858788395        1.5089724193       -2.0256589043
 H          0.9493130874        3.1521217036       -1.3675499996
 H          0.9071989979        4.0240489500        0.9407460327
 H          2.5855832623        3.2702818923        2.5829784301
 H          4.3255421451        1.6206955963        1.8909108617
 H          3.6155352900       -1.2791170208       -1.6995453574
 H          4.1705765696       -0.9714301037        1.8601323626
 H          2.3619821565       -1.3444159048        3.5194341717
 H          0.1027673447       -1.9770901267        2.7547020598
 H         -1.2498646744       -2.9507176953        1.0289326346
 C         -0.8161379335       -3.1772745418       -1.0305014491
 C         -2.1049733179       -3.3354689948       -1.7791974642
 C         -0.9668029398       -2.5832539924       -2.3975189574
 H         -0.4322894896       -3.0468996084       -3.2143310389
 H         -1.0412966914       -1.5105990467       -2.4808232740
 H         -2.3593946174       -4.3072171080       -2.1746489383
 H         -2.9551722398       -2.7714947697       -1.4236903041
 H         -0.1897136648       -4.0613590635       -0.9550178967
