  62
        -98.94479912
 C          2.0277906310        0.9767100373       -0.4432746748
 C          3.0911299496        1.2451573946        0.4561532689
 C          4.3699267598        0.5940788828        0.1553228533
 C          4.4762059573       -0.1980448123       -0.9269122863
 C          5.7173583799       -0.9189034554       -1.3781659383
 C          5.9476915256       -2.2636905797       -0.6750628904
 C          6.3985694966       -2.1670215510        0.7830040746
 H          6.7313624014       -3.1631789113        1.0814830914
 H          7.2600830957       -1.5020823937        0.8523731830
 C          5.3055274929       -1.7006650640        1.7548276577
 H          4.3263458926       -1.8103935791        1.2824721458
 H          5.3064522081       -2.3427127918        2.6385914120
 C          5.4623700226       -0.2600037304        2.2416434507
 H          6.3767647877       -0.1705405188        2.8322985400
 H          4.6163662335       -0.0250575989        2.8923829436
 C          5.5017303974        0.7853627229        1.1192503273
 H          5.3921635503        1.7752622320        1.5688004667
 H          6.4575257408        0.7416937173        0.5976357055
 H          6.7183487602       -2.7969510703       -1.2365690493
 H          5.0280768266       -2.8507338656       -0.7339684206
 H          6.5871966712       -0.2775146753       -1.2335395875
 H          5.5968757114       -1.1060258127       -2.4474471587
 O          3.4360982500       -0.4237620921       -1.7713205363
 C          2.1852624223        0.1347013253       -1.5440827056
 O          1.3303304891       -0.1867476823       -2.3919740971
 O          2.9761571259        1.9978843246        1.4590946284
 C          0.6759568469        1.6058412904       -0.1488227594
 C         -0.2688269007        0.5242866069        0.3125037170
 C         -0.2659192715        0.1356994237        1.6490613785
 C         -1.1030891476       -0.8701211025        2.0955279448
 C         -1.9600527549       -1.5107881447        1.2177766402
 C         -1.9626486285       -1.1358855447       -0.1190391886
 C         -1.1305976553       -0.1175955384       -0.5637428616
 H         -1.1315086720        0.1522521023       -1.6078692526
 N         -2.8423548304       -1.7775761129       -1.0116731744
 S         -4.4580791152       -1.7842230501       -0.5705592070
 O         -4.6991878743       -2.8557261588        0.3635623350
 O         -5.2002255865       -1.8493266986       -1.8100356987
 C         -4.7058276399       -0.2119183728        0.2366524357
 C         -5.0086580459       -0.1673376038        1.5819563721
 C         -5.1354068235        1.0668469874        2.1994084512
 C         -4.9508327012        2.2282407707        1.4658229523
 C         -4.6489541494        2.1668555679        0.1138608079
 C         -4.5232036081        0.9361732018       -0.5088611603
 H         -4.2937225726        0.8537385134       -1.5591481197
 H         -4.5052592654        3.0718378365       -0.4544538673
 H         -5.0427217109        3.1881517010        1.9490661336
 H         -5.3716545701        1.1182628363        3.2500206483
 H         -5.1386359847       -1.0948300023        2.1152287096
 H         -2.7276363944       -1.4804864932       -1.9697971844
 H         -2.6215766794       -2.2973642255        1.5435196001
 H         -1.0901592735       -1.1586938654        3.1354969710
 H          0.4098932035        0.6292989140        2.3332186281
 H          0.8538796910        2.2822462261        0.6979141578
 C          0.1420021803        2.4129787789       -1.3142746767
 C         -1.0485818907        3.2982769383       -1.0998556848
 C          0.3061557347        3.9018611157       -1.3137188442
 H          0.5095201447        4.3968914736       -2.2515816924
 H          0.8066981757        4.3493271148       -0.4677497410
 H         -1.7772888475        3.3812203726       -1.8916332223
 H         -1.4692171622        3.3302386567       -0.1062666944
 H          0.2324932360        1.9067295297       -2.2674742352
