  62
        -98.94437795
 C          1.8459419957        1.0449824274       -0.2036704401
 C          2.3773328064       -0.0911729336       -0.8598249429
 C          3.8422154169       -0.2162390044       -0.8323545494
 C          4.5755549389        0.7373163719       -0.2293602129
 C          6.0686855790        0.7056807750       -0.0811073446
 C          6.4812130753        0.0281284943        1.2332992360
 C          5.7948964835       -1.3158683348        1.4776110729
 H          6.1844544107       -1.7138883393        2.4170932199
 H          4.7242725864       -1.1502349061        1.6177970189
 C          6.0032356727       -2.3475738040        0.3602556190
 H          6.2427626447       -3.3116434906        0.8138762116
 H          6.8555045966       -2.0594001358       -0.2562334687
 C          4.7824699096       -2.5682278783       -0.5351917218
 H          3.9031628726       -2.7659746062        0.0834012985
 H          4.9622947869       -3.4600263502       -1.1416555992
 C          4.4446319608       -1.4218967574       -1.4968499657
 H          5.3334078884       -1.1457380361       -2.0680070056
 H          3.6864305406       -1.7877318667       -2.1956562377
 H          6.2301289511        0.6960758290        2.0604752182
 H          7.5638332438       -0.1104257063        1.2252667854
 H          6.4362789758        1.7331803489       -0.0808297288
 H          6.5015377916        0.1756972890       -0.9272385415
 O          4.0288173664        1.8280263806        0.3660555832
 C          2.6552176889        2.0034025642        0.4057784166
 O          2.2833254220        3.0325558541        1.0048765662
 O          1.6688858266       -0.9575061185       -1.4362342410
 C          0.3432588387        1.2600679241       -0.1647549132
 C         -0.3365648432        0.0558199442        0.4386366262
 C          0.1590952899       -0.4644832329        1.6324283426
 C         -0.4132287902       -1.5796951792        2.2105940047
 C         -1.5049670579       -2.1925438842        1.6201147875
 C         -2.0168121432       -1.6737947453        0.4380003551
 C         -1.4394638878       -0.5503126253       -0.1412473548
 H         -1.8488040274       -0.1815448191       -1.0665178730
 N         -3.1207767007       -2.2748963850       -0.1835016225
 S         -4.2933909844       -1.3299014080       -0.9005506084
 O         -5.4749410064       -2.1660450234       -0.9079101876
 O         -3.8521047258       -0.8582178368       -2.1884058627
 C         -4.5299026088        0.0477747873        0.2093764165
 C         -4.8133159390       -0.2150446945        1.5354202754
 C         -4.9914239026        0.8472972319        2.4061250949
 C         -4.8878401820        2.1487875626        1.9388559845
 C         -4.6114641905        2.3961376934        0.6035712215
 C         -4.4289560390        1.3365294252       -0.2709871129
 H         -4.2069640845        1.4847228826       -1.3151060879
 H         -4.5353041139        3.4086124510        0.2398712608
 H         -5.0247340932        2.9749622302        2.6186332471
 H         -5.2091703000        0.6585438866        3.4449799103
 H         -4.8981987119       -1.2365327072        1.8682701524
 H         -3.5170981223       -3.0587759118        0.3130195103
 H         -1.9481938814       -3.0710532890        2.0636743009
 H         -0.0087647769       -1.9766039142        3.1295426277
 H          1.0132943369        0.0136637099        2.0929380441
 H          0.1754144283        2.1195248385        0.5009045357
 C         -0.1595778234        1.6123013666       -1.5491008637
 C         -1.3494005953        2.5061322164       -1.7186310744
 C          0.0216535676        3.0134598805       -2.0477392418
 H          0.2847617722        3.1623839099       -3.0842838473
 H          0.4823569641        3.7213698481       -1.3739441358
 H         -2.0294701260        2.3032427897       -2.5326988214
 H         -1.8241474949        2.8776102708       -0.8232534463
 H         -0.0190716177        0.8072184523       -2.2619277666
