  62
        -98.93593775
 C         -1.7759507388       -0.8406538216       -0.5658913630
 C         -3.1036158716       -1.2800379282       -0.3575197263
 C         -4.1306978673       -0.2300822481       -0.3222657745
 C         -3.7742562603        1.0552177257       -0.4981345407
 C         -4.6960754154        2.2450477616       -0.5504837514
 C         -5.4515710081        2.5823048848        0.7494064551
 C         -6.8547604714        1.9702694790        0.8425194947
 H         -7.5292758641        2.7047212680        1.2874235750
 H         -7.2222899816        1.7791912447       -0.1664871147
 C         -6.9715690762        0.6925577464        1.6792500499
 H         -7.9374571015        0.2337788406        1.4568365400
 H         -6.9711264609        0.9588140685        2.7388073351
 C         -5.8699005420       -0.3462008350        1.4685539235
 H         -4.9542667829       -0.0148920084        1.9645115119
 H         -6.1722561058       -1.2698622652        1.9663405347
 C         -5.5389670908       -0.6428878373       -0.0071314299
 H         -5.5985097435       -1.7172764018       -0.1927617828
 H         -6.2438901807       -0.1406252055       -0.6680453357
 H         -5.5519811339        3.6683264136        0.7835683134
 H         -4.8489222794        2.2876266928        1.6082187402
 H         -4.0620636490        3.0912834890       -0.8225803990
 H         -5.4160584177        2.0945105450       -1.3581159781
 O         -2.4831340819        1.4348465437       -0.7010530692
 C         -1.4518147044        0.5064909207       -0.7268633069
 O         -0.3225917472        0.9973679074       -0.9013033873
 H          2.0926341260       -1.8042360574       -0.8403235511
 C          1.7458680880       -1.5637632613        0.1526766076
 C          0.3873620453       -1.5524763591        0.4285505512
 C         -0.0219458610       -1.2471558735        1.7240617681
 C          0.8999402060       -0.9428547062        2.7068731195
 C          2.2553196318       -0.9486174179        2.4257804834
 C          2.6761943753       -1.2618478112        1.1409488775
 N          4.0562530960       -1.2933979040        0.8539413646
 S          4.9528747236        0.1114404487        1.0115234359
 O          6.3008138143       -0.2510048615        0.6375928609
 O          4.7764480420        0.6362913254        2.3408984119
 C          4.2778498130        1.2346308256       -0.1984164358
 C          4.9857672233        1.4745127203       -1.3597470302
 C          4.4320366709        2.3033649518       -2.3216819125
 C          3.1796500954        2.8613334682       -2.1129820469
 C          2.4790596590        2.6065312026       -0.9441498286
 C          3.0327587706        1.7871767390        0.0263152676
 H          2.5074115155        1.5696992215        0.9421483331
 H          1.4925077120        3.0123553480       -0.7918284278
 H          2.7418941562        3.4968634931       -2.8668503517
 H          4.9728114092        2.5057377346       -3.2323914889
 H          5.9529053628        1.0137387386       -1.4811350486
 H          4.2683198359       -1.7186953244       -0.0380258932
 H          2.9869614268       -0.6984482247        3.1763221865
 H          0.5628675036       -0.7022085844        3.7041470486
 H         -1.0799148880       -1.2448014901        1.9494526066
 C         -0.6577094171       -1.8649731871       -0.6134327029
 H         -1.1280057006       -2.8241976991       -0.3498133073
 C         -0.1042899350       -1.9658052951       -2.0198730654
 C          0.4785506049       -3.2550457162       -2.5152336248
 C         -0.8477548593       -2.7851354025       -3.0302027826
 H         -0.9099849116       -2.4215437410       -4.0448323531
 H         -1.7389867664       -3.2947985760       -2.6943976330
 H          1.3270604635       -3.2166265294       -3.1820100566
 H          0.4888641432       -4.0936334418       -1.8354402095
 H          0.3398479001       -1.0361257602       -2.3589722368
 O         -3.4167168688       -2.4926179383       -0.2111042325
