  62
        -98.93750667
 C         -1.7977748671       -0.8329662856       -0.6986781353
 C         -2.0412633409       -0.0700417528        0.4665637068
 C         -3.4495366603        0.0364613602        0.8911647028
 C         -4.3986558093       -0.5915478885        0.1756070640
 C         -5.8845271919       -0.5651950633        0.4054278357
 C         -6.5442421383        0.5410190608       -0.4353765024
 C         -6.5839191835        1.9171560478        0.2281117485
 H         -7.3069703331        1.8996201637        1.0463586799
 H         -6.9508432293        2.6263654107       -0.5174607384
 C         -5.2441675394        2.4224324449        0.7700617432
 H         -5.3108688759        3.5079155576        0.8661258226
 H         -4.4520689269        2.2096133232        0.0500169352
 C         -4.8818334772        1.8246031885        2.1377536752
 H         -5.7608493025        1.3334652978        2.5549336184
 H         -4.6223329746        2.6309559719        2.8267854354
 C         -3.6968733977        0.8466914349        2.1342990753
 H         -3.7973066013        0.1612335880        2.9824449479
 H         -2.7659366024        1.4006001643        2.2904270896
 H         -7.5707373625        0.2447071245       -0.6608266875
 H         -6.0068489447        0.6047359883       -1.3850812175
 H         -6.1095229710       -0.4444618139        1.4609116887
 H         -6.2687246857       -1.5313393108        0.0715178805
 O         -4.1163936161       -1.3268986312       -0.9359056496
 C         -2.8219156627       -1.4665440220       -1.4004161604
 O         -2.7118430954       -2.1716669426       -2.4244549734
 O         -1.1303984208        0.5011269489        1.1207107285
 C         -0.3792134916       -0.9894593451       -1.2143697177
 C          0.5005048455       -1.5955617068       -0.1480389499
 C          0.0450934457       -2.7093093551        0.5532846860
 C          0.8201429874       -3.2880700031        1.5387225314
 C          2.0710882234       -2.7774222174        1.8385910542
 C          2.5405334600       -1.6739017115        1.1375177184
 C          1.7564504589       -1.0920831922        0.1498906984
 H          2.1399902449       -0.2417297894       -0.3873143601
 N          3.7894422766       -1.1170956015        1.4385362482
 S          4.7285673156       -0.3910297708        0.2666076257
 O          4.6513858879       -1.0918202777       -0.9941774204
 O          6.0459610333       -0.3100810800        0.8616080702
 C          4.0686938126        1.2540590515        0.0956841608
 C          4.1182576799        1.8605643926       -1.1440728186
 C          3.6370424509        3.1532825793       -1.2793506939
 C          3.1174848547        3.8141036279       -0.1770920301
 C          3.0788632105        3.1925724697        1.0616735383
 C          3.5618773718        1.9016761780        1.2045422947
 H          3.5378072165        1.3894277671        2.1517873650
 H          2.6696730393        3.7074912808        1.9160018232
 H          2.7383736782        4.8182004341       -0.2847737322
 H          3.6662464892        3.6383811276       -2.2422584402
 H          4.5200223384        1.3049009123       -1.9767702556
 H          4.3380002263       -1.6148358701        2.1233841906
 H          2.6761402347       -3.2266983658        2.6112976840
 H          0.4500484560       -4.1473936940        2.0777520318
 H         -0.9314238526       -3.1112705685        0.3180369870
 H         -0.4352070167       -1.7008152474       -2.0519507113
 C          0.1309287170        0.3382877824       -1.7358297307
 C          1.1530315353        0.3805913939       -2.8303755579
 C         -0.2646583034        0.7751116406       -3.1130642832
 H         -0.4860253061        1.8183751750       -3.2800516753
 H         -0.8811311414        0.0996939210       -3.6887393140
 H          1.9041698828        1.1553271284       -2.8008592607
 H          1.5101071870       -0.5612218618       -3.2195632295
 H          0.1780476030        1.0973588286       -0.9630720870
