  62
        -98.94071009
 C          2.0613457716        0.9603220211        0.2963377384
 C          1.9478484580       -0.0289349242       -0.7121247194
 C          2.1831948100       -1.4132843085       -0.2773696106
 C          2.4520112433       -1.6828264715        1.0114256157
 C          2.6807476479       -3.0459425137        1.6068189112
 C          4.1134946669       -3.5710886488        1.4392706385
 C          4.4875203024       -4.0078184864        0.0222075165
 H          5.4297186161       -4.5546122367        0.0942699279
 H          3.7348429062       -4.7020120177       -0.3525356252
 C          4.6631899503       -2.8515642204       -0.9720786876
 H          4.7823047534       -1.9144110037       -0.4236846691
 H          5.5770182324       -3.0038805967       -1.5505389294
 C          3.5161231015       -2.6946063850       -1.9706187647
 H          3.7234851017       -1.8255112040       -2.5998981327
 H          3.4669573179       -3.5745559438       -2.6158481340
 C          2.1419059880       -2.4889932499       -1.3204557917
 H          1.7845614049       -3.4230680556       -0.8863244543
 H          1.4327426958       -2.1733299488       -2.0905517748
 H          4.8084007716       -2.7995127201        1.7782203959
 H          4.2227269581       -4.4323243810        2.1023375489
 H          2.4677583600       -2.9558409329        2.6742733364
 H          1.9753460396       -3.7553480703        1.1724950727
 O          2.5342200516       -0.7084042090        1.9563142991
 C          2.3384550586        0.6199059955        1.6229987967
 O          2.4477707556        1.4063487902        2.5874097143
 O          1.6665377700        0.2018719478       -1.9183240307
 C          1.8059505829        2.4399571082        0.0624119243
 C          0.3403603500        2.7612692453        0.2497203273
 C         -0.0542688169        3.9204205434        0.9087153061
 C         -1.3949436110        4.1981861495        1.1046559690
 C         -2.3665769684        3.3135727555        0.6725235988
 C         -1.9819619770        2.1551482016        0.0076644740
 C         -0.6382381129        1.8995942858       -0.2211435710
 H         -0.3668091785        0.9992897238       -0.7504064994
 N         -2.9320069633        1.2251597766       -0.4438900833
 S         -2.5401331737       -0.4148968858       -0.2922922920
 O         -1.7891514566       -0.6337376068        0.9239142405
 O         -1.9355790159       -0.8672268975       -1.5190696283
 C         -4.1734489611       -1.1193533214       -0.1429977964
 C         -4.7030738220       -1.3300014029        1.1161752862
 C         -5.9869638458       -1.8406289998        1.2269726805
 C         -6.7171448225       -2.1265648793        0.0830325030
 C         -6.1721184306       -1.9105324316       -1.1739760879
 C         -4.8883236739       -1.4016922728       -1.2917651885
 H         -4.4183123762       -1.2256278494       -2.2452906975
 H         -6.7412012981       -2.1367743367       -2.0611184483
 H         -7.7161901875       -2.5228390638        0.1722002330
 H         -6.4112766231       -2.0129325039        2.2029107023
 H         -4.0940827356       -1.1005472678        1.9760775707
 H         -3.8656290742        1.4188113852       -0.1071586199
 H         -3.4123092113        3.5142291564        0.8494281099
 H         -1.6864095377        5.1011171496        1.6191792308
 H          0.6992366838        4.5953722652        1.2861657263
 H          2.3615396090        2.9698086571        0.8497815030
 C          2.2849459203        2.9482762896       -1.2835527974
 C          2.6887621164        4.3837045179       -1.4265647831
 C          3.7285648971        3.3050546266       -1.4633562018
 H          4.2019051633        3.0683337731       -2.4041153905
 H          4.3786998686        3.1935591850       -0.6074545119
 H          2.4455759674        4.8948935854       -2.3451739338
 H          2.6440200078        5.0098448238       -0.5486592738
 H          1.7812248576        2.4786329634       -2.1182567157
