  62
        -98.94570092
 C         -2.5616356095       -0.1353585115        0.0795046269
 C         -2.4449691721       -1.2038523554       -0.8390571338
 C         -1.9095454771       -2.4576222020       -0.2997648049
 C         -1.5660498290       -2.5306403130        0.9992697701
 C         -0.9857657090       -3.7318392257        1.6949520740
 C          0.5323203862       -3.8668553780        1.5110059151
 C          0.9761391334       -4.3617304315        0.1335607798
 H          2.0242385976       -4.6548339798        0.2203462169
 H          0.4074311362       -5.2527092606       -0.1362376382
 C          0.8538276058       -3.3117741482       -0.9793170835
 H          1.7621247396       -3.3144064272       -1.5877111778
 H          0.7845757714       -2.3151271461       -0.5361614044
 C         -0.3232290429       -3.5198339232       -1.9326665034
 H         -0.3394710043       -2.6800024623       -2.6328216757
 H         -0.1711151955       -4.4367122511       -2.5078324314
 C         -1.6942741124       -3.5977187708       -1.2494357487
 H         -2.4638009013       -3.5324213458       -2.0232569293
 H         -1.8004691884       -4.5495201025       -0.7289602564
 H          0.9935956736       -2.8956794206        1.7083111355
 H          0.8924895582       -4.5724657851        2.2634689523
 H         -1.4815038597       -4.6384225158        1.3460985752
 H         -1.1957042390       -3.6054161599        2.7591373638
 O         -1.7284078157       -1.4920064214        1.8601845721
 C         -2.1884504936       -0.2621483460        1.4180979085
 O         -2.2385317475        0.6160885809        2.3013518427
 O         -2.7714908120       -1.1117554343       -2.0554874626
 C         -2.9976864565        1.2268842346       -0.4239958535
 C         -1.8949734493        2.2372785278       -0.2082350371
 C         -2.1364978943        3.5798194860        0.0534697342
 C         -1.0809390786        4.4581347408        0.2348830492
 C          0.2286732336        4.0196070791        0.1815249397
 C          0.4809952952        2.6749341212       -0.0744894144
 C         -0.5761390550        1.8109877941       -0.2988764121
 H         -0.3663060521        0.7766240035       -0.5289210195
 N          1.7960782139        2.1810766636       -0.0613203802
 S          2.1336801457        0.5651710592       -0.3545387481
 O          1.8374992442        0.2130098751       -1.7272662788
 O          1.5095178801       -0.2326509495        0.6703074193
 C          3.8987569998        0.5874434772       -0.1089596123
 C          4.7439712403        0.6089463334       -1.2017526394
 C          6.1132465145        0.6546411450       -0.9900449706
 C          6.6110026474        0.6799933907        0.3038757590
 C          5.7502562401        0.6556859399        1.3915025021
 C          4.3806791877        0.6091739585        1.1861442389
 H          3.6722965792        0.5800643984        1.9981050552
 H          6.1402989743        0.6722584054        2.3964057521
 H          7.6765908093        0.7158812409        0.4664911714
 H          6.7846894352        0.6698991945       -1.8333398020
 H          4.3105175220        0.5793119605       -2.1884716601
 H          2.4949019217        2.8158070704       -0.4168161511
 H          1.0488767704        4.7008571740        0.3448693022
 H         -1.2835279839        5.4998442847        0.4325255064
 H         -3.1512564270        3.9377266092        0.1178250168
 H         -3.1455167275        1.1054833098       -1.5087996203
 C         -4.3127802016        1.6429430726        0.2033519094
 C         -5.3053414749        2.4540051155       -0.5736519176
 C         -5.5787581411        1.0090587494       -0.2877931309
 H         -6.3424847333        0.7571652307        0.4323873002
 H         -5.4920416018        0.3001482324       -1.0984841719
 H         -5.8870836214        3.1964798885       -0.0484648834
 H         -5.0467635531        2.7268035677       -1.5857871952
 H         -4.2222265481        1.8220933214        1.2687992377
