  62
        -98.93575276
 C         -2.0943951640       -0.9190124119        0.0847582166
 C         -2.4859377025        0.0680757212        1.0169135079
 C         -2.6332675416        1.4384200269        0.5002560727
 C         -2.3610108277        1.6857116354       -0.7927998716
 C         -2.3696591814        3.0065209263       -1.5219890225
 C         -3.5051438937        3.9893360700       -1.2102292763
 C         -4.8612102762        3.3334146218       -0.9118128606
 H         -4.8246314189        2.2725436654       -1.1652127514
 H         -5.6243415874        3.7936543661       -1.5419009754
 C         -5.2946268616        3.4949460509        0.5468877116
 H         -6.3751909646        3.3472059883        0.6104062347
 H         -5.0847070715        4.5187563913        0.8635989650
 C         -4.6464846970        2.5237015411        1.5322972265
 H         -5.0218389393        1.5120202803        1.3563745468
 H         -4.9561002856        2.8099889501        2.5401800597
 C         -3.1105870912        2.4639542509        1.4889064238
 H         -2.7594299680        2.1222859511        2.4666042177
 H         -2.6814808600        3.4432110596        1.2911821995
 H         -3.5989168260        4.6444190566       -2.0780376708
 H         -3.2208270389        4.6211617679       -0.3701381283
 H         -2.3936339042        2.7431730570       -2.5824934863
 H         -1.4066399928        3.4928709481       -1.3375275756
 O         -1.9767739762        0.7033088681       -1.6569659537
 C         -1.8145162497       -0.6079575848       -1.2453714007
 O         -1.4365430615       -1.3866170989       -2.1419743935
 O         -2.6793432980       -0.1798434336        2.2388812678
 C         -1.8499352644       -2.3389066021        0.5668329909
 C         -0.3927935164       -2.6650322216        0.3474608964
 C          0.0632736078       -3.8103263159       -0.2907430045
 C          1.4149648172       -3.9883152604       -0.5358787648
 C          2.3384090453       -3.0321022782       -0.1541841885
 C          1.8932669645       -1.9000356617        0.5116232835
 C          0.5451142958       -1.7298972290        0.7686886789
 H          0.2079022025       -0.8292874302        1.2690457233
 N          2.8307086241       -0.8845151580        0.8628778972
 S          2.9797799658        0.2387793871       -0.4001971574
 O          1.8811945411        1.1834184391       -0.3525504944
 O          3.1626970043       -0.4872924862       -1.6301766167
 C          4.4987810634        1.0591747626        0.0477829623
 C          5.6931194895        0.4189196607       -0.2210260084
 C          6.8793270054        1.0286631845        0.1540865592
 C          6.8517444200        2.2610029206        0.7902262004
 C          5.6452541164        2.8913599256        1.0532404300
 C          4.4550342773        2.2855182967        0.6814997418
 H          3.4941535495        2.7418282033        0.8585083692
 H          5.6256479400        3.8503005883        1.5457214906
 H          7.7762912059        2.7343051767        1.0808729927
 H          7.8194309487        0.5423239641       -0.0503264825
 H          5.6639613957       -0.5327648373       -0.7249065312
 H          2.5075658556       -0.3636858541        1.6698489010
 H          3.3873326680       -3.1395526841       -0.3751330856
 H          1.7497359888       -4.8770502190       -1.0488725080
 H         -0.6431633036       -4.5551165012       -0.6194004952
 H         -2.0463668842       -2.3212580794        1.6492468940
 C         -2.8017279234       -3.3139130515       -0.0905268067
 C         -3.1722363926       -4.5895252900        0.6040492261
 C         -4.1759069869       -3.4838826271        0.4822469033
 H         -5.0050027947       -3.6090019723       -0.1977726396
 H         -4.4185344473       -2.9116214779        1.3657674799
 H         -3.3153849496       -5.4777390039        0.0076274898
 H         -2.7375900042       -4.7737817083        1.5747139555
 H         -2.7035689538       -3.3245812483       -1.1702727365
