  62
        -98.94514191
 C         -1.5300097651       -0.8153798843        0.0053035895
 C         -2.8070526792       -1.4226518154        0.0271473120
 C         -3.9067923727       -0.5836848035        0.5224692415
 C         -3.6426115885        0.6687873551        0.9380726271
 C         -4.6752366033        1.6469909878        1.4172040999
 C         -5.2087867227        2.5031314906        0.2601463308
 C         -5.6317111998        1.6915614822       -0.9643060012
 H         -6.0185745644        2.3958169517       -1.7040575433
 H         -4.7491968064        1.2188084202       -1.4012900692
 C         -6.6909670394        0.6177455582       -0.6791997908
 H         -7.4538366367        0.6620570437       -1.4594441275
 H         -7.1863899333        0.8279129011        0.2694384408
 C         -6.1536508276       -0.8145931817       -0.6632898941
 H         -5.5766495257       -0.9996317207       -1.5729843462
 H         -7.0069570567       -1.4980824661       -0.6732232456
 C         -5.2829425179       -1.1872751973        0.5433982097
 H         -5.8047962367       -0.9294607542        1.4673545378
 H         -5.1349911746       -2.2711522367        0.5237372089
 H         -6.0576477648        3.0849756764        0.6239712056
 H         -4.4248085876        3.1996449304       -0.0453611872
 H         -5.4925681872        1.1038881723        1.8876382284
 H         -4.2118656809        2.3008599477        2.1578172915
 O         -2.3973940403        1.2085658446        0.9259319068
 C         -1.3089471149        0.4877977982        0.4530668537
 O         -0.2288542362        1.1028696299        0.4876914297
 H          2.3583288991       -1.0994246766       -0.7886472773
 C          2.0672763195       -1.3424550281        0.2183955292
 C          0.7498063865       -1.6474689112        0.5190322383
 C          0.4305430762       -2.0043826694        1.8271153771
 C          1.4009198499       -2.0291453450        2.8090517290
 C          2.7093453339       -1.6877427576        2.5127111859
 C          3.0414230996       -1.3457061556        1.2081048960
 N          4.3595622873       -1.0133330852        0.8727914805
 S          4.7027680768        0.0228977625       -0.3882446151
 O          4.5509637942       -0.6633989190       -1.6474080648
 O          6.0386519081        0.4984484433       -0.0946012483
 C          3.5467634612        1.3763660649       -0.2829337487
 C          3.4380405960        2.0649620383        0.9077580951
 C          2.5580729269        3.1308609262        0.9859002569
 C          1.8082390575        3.4910126123       -0.1218476510
 C          1.9330276457        2.7934759993       -1.3115757298
 C          2.8090262695        1.7244347941       -1.3948646014
 H          2.9301174300        1.1497102908       -2.3000079059
 H          1.3427659525        3.0718365989       -2.1705686764
 H          1.1160937770        4.3154829246       -0.0559802058
 H          2.4522684967        3.6731285751        1.9118384885
 H          4.0364020195        1.7654362184        1.7531523674
 H          4.9895365516       -0.8942187166        1.6514589154
 H          3.4661353595       -1.6914489884        3.2820085558
 H          1.1364637660       -2.3056781494        3.8186829340
 H         -0.5945589587       -2.2551781982        2.0642311346
 C         -0.3443404630       -1.6046649876       -0.5176542218
 H         -0.7151663460       -2.6282335532       -0.6769661306
 C          0.1116798861       -1.0362806170       -1.8452989268
 C          0.7971346770       -1.9124381385       -2.8494107246
 C         -0.6018385653       -1.4370514112       -3.1000402540
 H         -0.7657983370       -0.6900991070       -3.8622405819
 H         -1.4083347919       -2.1497221513       -3.0063142605
 H          0.9411273884       -2.9505076513       -2.5899257873
 H          1.6023652412       -1.4958957590       -3.4364202821
 H          0.4358347153       -0.0043595464       -1.7611170898
 O         -3.0163106947       -2.6099360348       -0.3432386829
