  62
        -98.93303616
 C         -2.0703223686       -1.1845808710       -0.3076739404
 C         -2.7193799690       -0.4316695518        0.7017909500
 C         -3.0245100698        0.9789663781        0.4090779708
 C         -2.6755143201        1.4802870589       -0.7887875090
 C         -2.8452134508        2.8834507891       -1.3154970883
 C         -4.1878227512        3.5752379082       -1.0328622479
 C         -4.0867265918        4.7061411878       -0.0076561873
 H         -3.1574551221        5.2515295584       -0.1847728671
 H         -4.9113240522        5.4027593374       -0.1741559370
 C         -4.1423787015        4.2659397470        1.4540881425
 H         -5.1579580914        3.9460805963        1.6967444523
 H         -3.9199549120        5.1398036768        2.0708334329
 C         -3.1796294609        3.1395288073        1.8354323119
 H         -3.0149091609        3.1904645169        2.9138836119
 H         -2.2095275110        3.2836804281        1.3597911119
 C         -3.7153593401        1.7369963672        1.5098938812
 H         -3.6187759298        1.0927944668        2.3892439708
 H         -4.7851220302        1.7879616567        1.2878981912
 H         -4.9237140608        2.8384200277       -0.7152944283
 H         -4.5430544215        4.0033608085       -1.9716016377
 H         -2.6890000408        2.8003051697       -2.3937203483
 H         -2.0221319212        3.4915735694       -0.9305705280
 O         -2.0549909997        0.7219072798       -1.7352182994
 C         -1.7154308989       -0.6057626902       -1.5255662901
 O         -1.1364250187       -1.1258017894       -2.5001190903
 O         -3.0381507287       -0.9279817926        1.8176351898
 C         -1.7111720878       -2.6145917410        0.0550151689
 C         -0.3618686277       -2.6502980006        0.7357158089
 C         -0.1784560773       -3.3570907911        1.9184010685
 C          1.0496902527       -3.3575243407        2.5551042985
 C          2.1085585623       -2.6342995999        2.0377486788
 C          1.9365892819       -1.9295726394        0.8511336292
 C          0.7142518619       -1.9602031097        0.1969611892
 H          0.6024422215       -1.4123462993       -0.7269686805
 N          2.9898285214       -1.1858842885        0.2958608495
 S          2.6121218306        0.2779527617       -0.4627190997
 O          1.5467772703        0.9476563207        0.2500238306
 O          2.4046763707        0.0333392823       -1.8672661998
 C          4.1496144901        1.1561265724       -0.2374362993
 C          5.1801749202        0.9358511434       -1.1318700194
 C          6.3874544899        1.5879971340       -0.9370889591
 C          6.5439930994        2.4439685935        0.1430726313
 C          5.5003672693        2.6567891325        1.0311742314
 C          4.2906844897        2.0066098419        0.8428317211
 H          3.4485542896        2.1465096612        1.5016887912
 H          5.6232791390        3.3250594622        1.8681222617
 H          7.4841324992        2.9509550640        0.2919985515
 H          7.1996685300        1.4270940748       -1.6273707192
 H          5.0067030606        0.2692510638       -1.9605772498
 H          3.7781168214       -1.0906380884        0.9219293896
 H          3.0605147223       -2.6114640196        2.5459694688
 H          1.1779918830       -3.9085568011        3.4742300782
 H         -1.0128614570       -3.8899370617        2.3492819083
 H         -2.4618890176       -2.9276921717        0.7946177388
 C         -1.7404847573       -3.5935061204       -1.1008814316
 C         -1.9778798465       -5.0463731807       -0.8209818023
 C         -3.0380608669       -4.2297125809       -1.4954299419
 H         -3.2307413569       -4.3898648705       -2.5453346119
 H         -3.9167294471       -3.9633591617       -0.9261763517
 H         -1.4396549261       -5.7752497301       -1.4068348827
 H         -2.1430314463       -5.3397784313        0.2043776076
 H         -1.0504751374       -3.3379232796       -1.8945327315
