  62
        -98.93894812
 C         -1.9253764412       -0.6061905469       -0.5447308009
 C         -2.8160005460       -1.0077607922        0.4853537561
 C         -3.9068105307       -0.0824091504        0.8127217717
 C         -3.9854559482        1.0897838831        0.1578883812
 C         -5.0660964665        2.1125588928        0.3552120546
 C         -6.2364130088        1.8773072701       -0.6098659411
 C         -6.7358163511        0.4326337898       -0.6336699977
 H         -7.5807125431        0.3922723194       -1.3245535001
 H         -5.9524404320       -0.2074463619       -1.0459345240
 C         -7.1670806863       -0.1128215479        0.7349164296
 H         -7.3394501349        0.7136554942        1.4252340078
 H         -8.1157324467       -0.6408973335        0.6179497347
 C         -6.1819733856       -1.1004736978        1.3630311990
 H         -5.9339892830       -1.8806565178        0.6390926086
 H         -6.6783632581       -1.5840780106        2.2085085689
 C         -4.8730171635       -0.4962593359        1.8869007831
 H         -5.0942987140        0.3432927134        2.5492440524
 H         -4.3596768243       -1.2674414573        2.4686125385
 H         -7.0545390029        2.5430211596       -0.3289025596
 H         -5.9116456993        2.1445304545       -1.6182292662
 H         -5.4156489231        2.0688451702        1.3850174255
 H         -4.6428498726        3.1006354410        0.1660905944
 O         -3.1029714219        1.4556715096       -0.8038117890
 C         -2.0528971714        0.6241010013       -1.1911693752
 O         -1.3540394409        1.1068031692       -2.0990276012
 H          0.4640862672        0.7301107480       -0.1339406763
 C          0.8558428804       -0.1363373432        0.3781772060
 C          0.3291196601       -1.3960686832        0.1244898611
 C          0.8488992204       -2.4886841711        0.8103909665
 C          1.8668130477       -2.3279546353        1.7329560156
 C          2.4017640711       -1.0747588026        1.9690383132
 C          1.8939870484        0.0233303023        1.2846792339
 N          2.4397505580        1.3142602061        1.4755044277
 S          3.3761103471        1.8789749023        0.2039468428
 O          3.9288609584        3.1361698651        0.6565529313
 O          2.5909163126        1.9050503303       -1.0005005130
 C          4.6786429281        0.6654441051        0.0632417768
 C          4.4286652808       -0.5034504978       -0.6284118539
 C          5.4108570236       -1.4806761917       -0.6670424531
 C          6.6179711669       -1.2742247366       -0.0168446728
 C          6.8549042553       -0.0935836616        0.6709095527
 C          5.8747167055        0.8847822580        0.7184792493
 H          6.0147817339        1.8190186840        1.2380789089
 H          7.7960797051        0.0661706287        1.1718872107
 H          7.3789091465       -2.0378396606       -0.0489249358
 H          5.2267529185       -2.3976847680       -1.2030847557
 H          3.4817405599       -0.6259384151       -1.1291361352
 H          2.9694049227        1.4019075530        2.3328749443
 H          3.2011750606       -0.9417702013        2.6826723649
 H          2.2506519315       -3.1837775560        2.2661187498
 H          0.4309217900       -3.4678019960        0.6295485035
 C         -0.8020089166       -1.5799853519       -0.8561645926
 H         -1.2321102222       -2.5765839938       -0.6622874861
 C         -0.3388157601       -1.5763035909       -2.3038973547
 C          0.8513414658       -0.8180170932       -2.7997328193
 C          0.9116544042       -2.3105485459       -2.6928213876
 H          0.9084022756       -2.8919999758       -3.6022345956
 H          1.5053495759       -2.7341355091       -1.8963890506
 H          1.4038676737       -0.2054570545       -2.1043863782
 H          0.7760430197       -0.3670742588       -3.7778372763
 H         -1.1782561757       -1.6402857298       -2.9894926716
 O         -2.7021237385       -2.1032738661        1.0982388225
