  62
        -98.93837760
 C          1.7341038606        1.0595826806        0.8025807011
 C          1.8698872003       -0.3446535920        0.9594050156
 C          3.2148917413       -0.8980644162        0.7609853103
 C          4.2280405432       -0.0640123035        0.4653548876
 C          5.6378154566       -0.4935440932        0.1816060932
 C          5.8490192475       -0.7454983200       -1.3179595245
 C          4.7776487360       -1.6325740255       -1.9524432142
 H          3.8200659400       -1.1070229137       -1.9291591039
 H          5.0457337485       -1.7643507972       -3.0030170544
 C          4.6169655268       -3.0076632695       -1.2890717791
 H          4.5525175336       -3.7674998254       -2.0707795897
 H          5.4993511076       -3.2344930746       -0.6895288250
 C          3.3644550286       -3.1519239399       -0.4223991899
 H          2.4866577707       -2.8336132494       -0.9904390243
 H          3.2358725515       -4.2113274323       -0.1854999246
 C          3.3816676901       -2.3844387308        0.9054582725
 H          4.2960187678       -2.6183608616        1.4546006499
 H          2.5267367945       -2.7241743610        1.4971188938
 H          5.8455686156        0.2173299917       -1.8342186488
 H          6.8310995562       -1.2014194037       -1.4566000163
 H          6.3122108826        0.3006956436        0.5061990424
 H          5.8574742512       -1.3969074751        0.7473456153
 O          4.0666399659        1.2765007429        0.3414642614
 C          2.8185010992        1.8761186703        0.4809813094
 O          2.8356969609        3.1071848387        0.3011227763
 O          0.9057202868       -1.0982218743        1.2590577883
 C          0.3350525903        1.6183166974        0.9855728125
 C         -0.4064146325        1.6114909957       -0.3264601085
 C          0.1220610068        2.2190661039       -1.4614985812
 C         -0.5803071451        2.1976104969       -2.6524874795
 C         -1.8120462680        1.5717639233       -2.7360099267
 C         -2.3417337246        0.9484523990       -1.6111490884
 C         -1.6337532462        0.9732239577       -0.4169428471
 H         -2.0450912203        0.4911219696        0.4551911816
 N         -3.5595990414        0.2711650008       -1.6848894477
 S         -4.4646306662       -0.1577042351       -0.3553344514
 O         -5.7267216635       -0.5872544605       -0.9172732689
 O         -4.5367999351        0.9122152624        0.6122553528
 C         -3.6076447961       -1.5619090491        0.3236205470
 C         -3.2673111350       -2.5933570194       -0.5283216468
 C         -2.5977712223       -3.6916246472       -0.0145692812
 C         -2.2830442579       -3.7406553200        1.3347150983
 C         -2.6375680369       -2.7001592789        2.1782812830
 C         -3.3070691674       -1.5988184073        1.6701140406
 H         -3.5913439794       -0.7636762302        2.2916665980
 H         -2.3872043304       -2.7378281323        3.2263499065
 H         -1.7541517090       -4.5926041396        1.7318184671
 H         -2.3173645763       -4.5028204009       -0.6672142837
 H         -3.5272666178       -2.5208987916       -1.5714336493
 H         -4.0886334265        0.3759882869       -2.5359579130
 H         -2.3579005295        1.5588580114       -3.6668595871
 H         -0.1657181529        2.6769794332       -3.5267147267
 H          1.0818293765        2.7098094942       -1.3955589111
 H         -0.1689392460        0.8935748998        1.6454512731
 C          0.2926442158        2.9672475772        1.6881452852
 C         -0.1560571586        4.2341358021        1.0302977361
 C         -1.0339514056        3.5707316727        2.0461585784
 H         -1.1496447278        4.0333437634        3.0147589338
 H         -1.9217803386        3.0677080835        1.6894533250
 H          0.3574708368        5.1443593610        1.3000498374
 H         -0.4578452531        4.1972617894       -0.0043996419
 H          1.0852705930        3.0672666926        2.4225768067
