  62
        -98.93066526
 C          2.2413151422       -1.0645114091        0.1488040703
 C          3.6140002185       -1.2554139221       -0.1558707712
 C          4.5464586487       -0.2263397637        0.3264619898
 C          4.0576412691        0.8372767606        0.9888786879
 C          4.8627441514        2.0093811527        1.4738602463
 C          5.1952773713        2.9461658170        0.2949734254
 C          6.6843947547        3.0335554960       -0.0406441343
 H          6.7726425318        3.5403486003       -1.0040169344
 H          7.1801691876        3.6572453117        0.7061853211
 C          7.4331921162        1.6991119272       -0.1084471815
 H          7.6725568483        1.3608139387        0.9007873122
 H          8.3858727082        1.8942406386       -0.6053140835
 C          6.7148200446        0.5640048630       -0.8493465946
 H          7.4586764913        0.0100048110       -1.4255692956
 H          5.9953151863        0.9652741657       -1.5635433217
 C          6.0101986746       -0.4536713730        0.0669361303
 H          6.0600551362       -1.4395513196       -0.4047374566
 H          6.5437657801       -0.5175566945        1.0194143613
 H          4.8355135779        3.9520515664        0.5170785832
 H          4.6417829980        2.6031114765       -0.5818976632
 H          5.7743566440        1.6564090976        1.9511045918
 H          4.2592468367        2.5328551616        2.2156905271
 O          2.7330221726        1.0057547846        1.2318600923
 C          1.7885059022        0.0695919783        0.8246584578
 O          0.6215870462        0.3740996896        1.1336771751
 O          4.0415511101       -2.2481752194       -0.8034589587
 C          1.2676373507       -2.1178245443       -0.3519529324
 C          0.1350146465       -1.4567246096       -1.0942005488
 C          0.3707799451       -0.9392163847       -2.3646239520
 C         -0.6317322022       -0.2886595709       -3.0581316608
 C         -1.8898042722       -0.1398322980       -2.5006994341
 C         -2.1317592642       -0.6428446805       -1.2300166163
 C         -1.1240800628       -1.3040921393       -0.5381374172
 H         -1.3138541941       -1.6709961720        0.4584830018
 N         -3.4089513087       -0.5147011588       -0.6507078013
 S         -4.2489234199        0.9328572252       -0.8714608319
 O         -4.8052287299        0.9376898593       -2.2023530445
 O         -3.4184445606        2.0672219742       -0.5333211758
 C         -5.5567904499        0.7350246591        0.3227518049
 C         -6.7325828172        0.1219788094       -0.0658109755
 C         -7.7373867502       -0.0549970351        0.8720807636
 C         -7.5500920393        0.3800748904        2.1755184837
 C         -6.3644409359        0.9942981107        2.5506583409
 C         -5.3551034124        1.1737099508        1.6178177364
 H         -4.4210529366        1.6542773757        1.8637516931
 H         -6.2220249707        1.3336442147        3.5641002331
 H         -8.3335156163        0.2426631238        2.9040066161
 H         -8.6612281035       -0.5300946172        0.5841675811
 H         -6.8346329009       -0.1916784393       -1.0914540636
 H         -3.3944868609       -0.7621473650        0.3298878443
 H         -2.6769157768        0.3758223733       -3.0264868611
 H         -0.4347017879        0.1108910117       -4.0419367691
 H          1.3566484079       -1.0432634553       -2.7974112263
 H          1.8538717120       -2.7016145961       -1.0801861263
 C          0.7962262396       -3.1029355478        0.7070661737
 C          1.7336528839       -3.5763964058        1.7763823960
 C          0.5566723319       -2.7226777010        2.1363518010
 H         -0.2703137375       -3.1870768403        2.6540175816
 H          0.7299864487       -1.6976226124        2.4236328175
 H          1.7183126899       -4.6202442310        2.0510078939
 H          2.7167072059       -3.1294965635        1.8076774803
 H          0.1281888955       -3.8488071799        0.2866369435
