  62
        -98.94301959
 C         -0.9313319791       -1.3087837952        0.2764465741
 C         -1.4233813580       -0.2022203395        1.0036585195
 C         -2.2771327698        0.7389033587        0.2599613203
 C         -2.4957329298        0.5273829709       -1.0493991714
 C         -3.3733146075        1.3416003597       -1.9589183740
 C         -4.7764784317        0.7185321932       -2.0512332965
 C         -5.7486808126        1.1589089904       -0.9568680004
 H         -6.0439572118        2.1946557468       -1.1374901114
 H         -6.6448411581        0.5417079980       -1.0531161375
 C         -5.2244483979        1.0437168548        0.4775027486
 H         -6.0878090417        1.0112788487        1.1449232545
 H         -4.6862128320        0.1021172360        0.5993171362
 C         -4.3274470872        2.2201232363        0.8902562939
 H         -4.4537621849        3.0274440938        0.1685111087
 H         -4.6669076678        2.6081870878        1.8525495275
 C         -2.8294289065        1.8997885278        1.0418307867
 H         -2.2518684894        2.7971905813        0.7962427015
 H         -2.6124899011        1.6543245582        2.0860610855
 H         -4.6602993116       -0.3681623971       -2.0277735759
 H         -5.2132011195        0.9788557855       -3.0175914410
 H         -3.4225215005        2.3736881926       -1.6232889885
 H         -2.9093762573        1.3149776745       -2.9474612469
 O         -1.9742669516       -0.5331251599       -1.7222657185
 C         -1.1786318536       -1.4705380968       -1.0868227021
 O         -0.7738174691       -2.3890857423       -1.8252850581
 H          1.3934452310       -0.1978534449        0.3001055851
 C          1.9003061991       -1.1048182537        0.0066350234
 C          1.3126487349       -2.3304682058        0.2945745216
 C          1.9829997113       -3.4898685913       -0.0706211636
 C          3.1908547126       -3.4135587116       -0.7433518412
 C          3.7428522331       -2.1910690972       -1.0778680842
 C          3.0870427310       -1.0239018328       -0.7004765560
 N          3.6180494000        0.2373264832       -1.0048018826
 S          2.6060676747        1.5420224559       -1.2746745326
 O          1.3662294305        1.1590994958       -1.9098777456
 O          3.4314143920        2.4786807862       -2.0101328528
 C          2.3100829475        2.1968474733        0.3531737421
 C          3.3990691534        2.4597886531        1.1608502173
 C          3.1816242740        2.9745888981        2.4283715986
 C          1.8871277788        3.2163495045        2.8636194122
 C          0.8050263650        2.9526232364        2.0386421964
 C          1.0169045135        2.4398923970        0.7688619886
 H          0.2015474497        2.2045094133        0.1008661996
 H         -0.2025126782        3.1264563532        2.3802467044
 H          1.7170559488        3.6108527224        3.8529066084
 H          4.0194958618        3.1818848378        3.0743091506
 H          4.3881759606        2.2581618263        0.7851844407
 H          4.4140620586        0.2324642733       -1.6253235666
 H          4.6683969300       -2.1355742324       -1.6303251004
 H          3.6999619281       -4.3213823818       -1.0298164385
 H          1.5546354408       -4.4524545310        0.1555509916
 C         -0.0331518695       -2.3133970291        0.9765443804
 H          0.0992949853       -1.9279977442        1.9985696313
 C         -0.6977356078       -3.6717392988        1.0467445491
 C         -0.3730163693       -4.6152131257        2.1652691779
 C         -1.7049128353       -3.9302115061        2.1257361723
 H         -2.5808036682       -4.5134902975        1.8841515642
 H         -1.8925023320       -3.1317980589        2.8286900378
 H         -0.3364087310       -5.6730199576        1.9528801475
 H          0.3429487519       -4.2870812152        2.9032940445
 H         -0.8977514728       -4.0865631281        0.0649586832
 O         -1.1656044574       -0.0088001525        2.2229099496
