  62
        -98.93894746
 C         -1.7912743451        0.4080524513        0.4846155678
 C         -2.8330798044        1.2144842855       -0.0271177355
 C         -4.2071012554        0.7158220605        0.1581088596
 C         -4.4027574887       -0.4597498746        0.7843995532
 C         -5.6759106163       -1.1929861853        1.1532303679
 C         -7.0169986223       -0.7848246461        0.5492075878
 C         -7.1505525929       -1.0525214140       -0.9496809599
 H         -7.1959940756       -2.1332855080       -1.1060296302
 H         -8.0973790861       -0.6275252713       -1.2898379081
 C         -6.0201012458       -0.5091982020       -1.8199421185
 H         -5.0817576392       -0.9974220307       -1.5485165971
 H         -6.2362268975       -0.7817479483       -2.8565749915
 C         -5.8258745384        1.0048538288       -1.7688322297
 H         -6.7671428559        1.5044554240       -2.0059420057
 H         -5.1021247364        1.2702519658       -2.5441641225
 C         -5.2986425476        1.5601317863       -0.4345517004
 H         -6.1050743857        1.7038094580        0.2803933874
 H         -4.8547011342        2.5407108858       -0.6294803356
 H         -7.2287521892        0.2567897505        0.7718354676
 H         -7.7808378322       -1.3782721486        1.0591032044
 H         -5.4875561096       -2.2475398581        0.9276333635
 H         -5.7518076991       -1.1219437805        2.2440021446
 O         -3.3615972914       -1.2041838158        1.2620139529
 C         -2.0424728008       -0.8039814574        1.1240657042
 O         -1.2125761491       -1.5999127195        1.6027718315
 O         -2.6267024603        2.3107632666       -0.6137895186
 C         -0.3545322748        0.8753294472        0.3332053092
 C          0.4385788911       -0.1470204229       -0.4405696857
 C         -0.0539006647       -0.5746203795       -1.6723522896
 C          0.6151402722       -1.5307427463       -2.4092648072
 C          1.7989663514       -2.0738515403       -1.9403291607
 C          2.3043649123       -1.6481472276       -0.7187431629
 C          1.6310998438       -0.6818575094        0.0193374463
 H          2.0383759827       -0.3842158279        0.9707902188
 N          3.4974768156       -2.1873891380       -0.2198279158
 S          4.5673638322       -1.2445730772        0.6412936301
 O          5.8377045158       -1.9244951679        0.4993845279
 O          4.1091457958       -1.0526032463        1.9940247640
 C          4.6216274289        0.3224299179       -0.2122901908
 C          4.4984482009        1.4901130481        0.5111217181
 C          4.5498863295        2.7041185416       -0.1554474593
 C          4.7215764228        2.7284594151       -1.5303728496
 C          4.8499011694        1.5463682483       -2.2437527259
 C          4.8026869576        0.3306065302       -1.5814867128
 H          4.9076495710       -0.6018986826       -2.1112627890
 H          4.9856323305        1.5687765793       -3.3130056144
 H          4.7567568070        3.6737311875       -2.0486388191
 H          4.4532340318        3.6232236760        0.4002519382
 H          4.3602550285        1.4248485960        1.5779794143
 H          3.9654475197       -2.8403063544       -0.8299726840
 H          2.3196842446       -2.8296763732       -2.5083096184
 H          0.2151630991       -1.8572296896       -3.3573475880
 H         -0.9804638830       -0.1521934438       -2.0364922624
 H         -0.4091892616        1.7953899532       -0.2674729201
 C          0.2277907927        1.2135302425        1.6885007969
 C          1.3014513847        2.2507303348        1.8133670321
 C         -0.0863112208        2.5479546710        2.2939217800
 H         -0.2661932367        2.6027535046        3.3571670854
 H         -0.6972953282        3.2227291449        1.7123410194
 H          2.0746689937        2.0974743853        2.5509646201
 H          1.6403012494        2.7299098846        0.9075504786
 H          0.2621611754        0.3584384388        2.3550859082
