  62
        -98.93626187
 C         -1.2272231623       -1.0609486767       -0.6183556729
 C         -2.3222454208       -1.3442072724        0.2362667958
 C         -3.3312784168       -0.2881902211        0.3968945655
 C         -3.1484514670        0.8865450178       -0.2321250708
 C         -4.1082784922        2.0426568569       -0.2212528713
 C         -5.2859209638        1.7619953483       -1.1763956865
 C         -6.6399357135        1.6153176893       -0.4818693012
 H         -6.9996393447        2.6053519264       -0.1937838809
 H         -7.3410408813        1.2098094943       -1.2144020690
 C         -6.6563689069        0.7296952306        0.7676990025
 H         -6.2681769794        1.2900828775        1.6196154975
 H         -7.7033511293        0.5121047691        0.9892549262
 C         -5.8893018675       -0.5947628606        0.6617742462
 H         -5.8012792928       -0.9061808000       -0.3792445136
 H         -6.4679897492       -1.3643998897        1.1765274587
 C         -4.4913878354       -0.5797226179        1.3081743396
 H         -4.4825654796        0.1237566025        2.1459128448
 H         -4.2824225621       -1.5741127261        1.7141955460
 H         -5.3618960606        2.5690721816       -1.9066371902
 H         -5.0617450025        0.8514863708       -1.7360298917
 H         -4.4661690857        2.2114123326        0.7921497991
 H         -3.5552942625        2.9250673278       -0.5448361526
 O         -2.0816863063        1.1309963495       -1.0320488808
 C         -1.0868093011        0.1791385278       -1.2432098474
 O         -0.1825957770        0.5717653204       -1.9999664343
 H          0.9182196686        0.0498392691        0.3708492892
 C          1.2743355961       -0.8568885663        0.8336637826
 C          0.8027352786       -2.0845773210        0.3914810227
 C          1.2537648829       -3.2400749013        1.0192397696
 C          2.1612460237       -3.1640534105        2.0609264780
 C          2.6301719623       -1.9389811876        2.4986197577
 C          2.1723954798       -0.7753531791        1.8881329264
 N          2.5958472707        0.4760696214        2.3419170611
 S          2.4847850533        1.8650151192        1.4325272184
 O          3.3184341673        2.8074557218        2.1514189365
 O          1.1059702817        2.2525515892        1.2652334663
 C          3.2507776439        1.4928749440       -0.1333239914
 C          2.6127395462        1.8258757902       -1.3091322780
 C          3.2464070208        1.5585987523       -2.5127837554
 C          4.4982950538        0.9654796949       -2.5191942235
 C          5.1276945248        0.6376911804       -1.3274275069
 C          4.5019132240        0.9060481615       -0.1216894007
 H          4.9688359608        0.6731420993        0.8214006506
 H          6.1009167042        0.1740192993       -1.3355426417
 H          4.9856065714        0.7555200660       -3.4582685187
 H          2.7463776508        1.8073462211       -3.4348068097
 H          1.6258105106        2.2580399260       -1.2734091931
 H          3.3431062105        0.4854589312        3.0178331706
 H          3.3298020293       -1.8773080624        3.3176178390
 H          2.5043767689       -4.0676570371        2.5410608836
 H          0.8724387108       -4.1988938089        0.7007445612
 C         -0.1824152823       -2.1546865696       -0.7494362680
 H         -0.7406094432       -3.0985585964       -0.6368225134
 C          0.5057573504       -2.1901996710       -2.1060381376
 C          1.9073203241       -1.7139535718       -2.3242704285
 C          1.6012532733       -3.1787797483       -2.3775536400
 H          1.6173686303       -3.6763926127       -3.3351831589
 H          1.9408045931       -3.7886639460       -1.5548106675
 H          2.1186620152       -1.1869317897       -3.2412144626
 H          2.4517148977       -1.3316557982       -1.4745062100
 H         -0.1934621246       -2.0052944334       -2.9147321480
 O         -2.4501584302       -2.4463897016        0.8371410307
