  62
        -98.93933687
 C         -1.4947836384       -0.7934332700       -0.0325160673
 C         -2.7716718362       -1.3945155869        0.0189378423
 C         -3.8956743461       -0.5224433275        0.4047271249
 C         -3.6598923333        0.7739761316        0.6813621858
 C         -4.5871385513        1.8793111062        1.1431589536
 C         -6.1024570477        1.7109368709        1.0723016559
 C         -6.6733266510        1.6564637858       -0.3444209136
 H         -7.7395159923        1.4298069723       -0.2753826914
 H         -6.5727569444        2.6460195168       -0.7973652816
 C         -6.0111560427        0.6514144511       -1.2835544107
 H         -6.5053140116        0.7265840298       -2.2560837655
 H         -4.9643230713        0.9230589492       -1.4332012725
 C         -6.0855662397       -0.8073560998       -0.8373357571
 H         -5.7198008541       -1.4232709073       -1.6634703045
 H         -7.1255560931       -1.0827795969       -0.6512759227
 C         -5.2540745188       -1.1626711146        0.4072746352
 H         -5.7908261471       -0.9244672545        1.3225954796
 H         -5.0828359838       -2.2432851231        0.4005646322
 H         -6.4122198559        0.8399799405        1.6423200816
 H         -6.5361641678        2.5834196718        1.5687048155
 H         -4.3103514960        2.0805884337        2.1839602001
 H         -4.2992896355        2.7673561786        0.5717674995
 O         -2.4043085810        1.3077668410        0.6212179187
 C         -1.2968684140        0.5536429279        0.2666349047
 O         -0.2253810601        1.1845550815        0.2570686092
 H          2.4241933371       -1.1651971109       -0.6325538163
 C          2.0892776098       -1.2871331041        0.3827526182
 C          0.7585811899       -1.5544211335        0.6602790516
 C          0.3822530034       -1.7554920451        1.9863667528
 C          1.3095782887       -1.6639570072        3.0052152912
 C          2.6309404914       -1.3589186101        2.7273044845
 C          3.0203392284       -1.1734631841        1.4069614380
 N          4.3532749829       -0.8839935817        1.0918270997
 S          4.7597503759       -0.0132651562       -0.2711223632
 O          4.6587854349       -0.8503577432       -1.4409380841
 O          6.0847679349        0.4924490093        0.0209666371
 C          3.6100018154        1.3447281619       -0.3864368498
 C          3.4568822659        2.1786797888        0.7020548991
 C          2.5808618249        3.2466078254        0.6083194461
 C          1.8792333565        3.4642963802       -0.5661756976
 C          2.0487254724        2.6219085341       -1.6521239216
 C          2.9208974103        1.5501751271       -1.5632074302
 H          3.0756003750        0.8656150069       -2.3827536121
 H          1.4960676682        2.7899276225       -2.5632164173
 H          1.1897709406        4.2908454265       -0.6336433267
 H          2.4404305334        3.9018543290        1.4530247262
 H          4.0187533661        1.9882857717        1.6022850792
 H          4.9517581997       -0.6753490612        1.8764514479
 H          3.3537005695       -1.2711456403        3.5237518359
 H          1.0010006813       -1.8199695911        4.0280539659
 H         -0.6530327275       -1.9775036960        2.2072298121
 C         -0.2909670708       -1.6312241015       -0.4200795715
 H         -0.6556121642       -2.6674605014       -0.4811489389
 C          0.2210401752       -1.2095450613       -1.7814349817
 C          0.9474943273       -2.1872842107       -2.6544495607
 C         -0.4389827530       -1.7467299389       -3.0142591790
 H         -0.5697931066       -1.0874167276       -3.8591958623
 H         -1.2495104958       -2.4477432634       -2.8779367522
 H          1.7775150937       -1.8343859216       -3.2486574787
 H          1.0790560800       -3.1906589951       -2.2781359638
 H          0.5426115131       -0.1735169571       -1.7962312793
 O         -2.9674804063       -2.6150777725       -0.2314887446
