  62
        -98.93543362
 C         -2.3238555212       -0.3000917061        0.5799786724
 C         -3.3993396602       -0.7463485167       -0.2275484446
 C         -4.3619163391        0.2907120681       -0.6305039572
 C         -4.1570223696        1.5744032564       -0.2881933245
 C         -5.0321553569        2.7421864543       -0.6548853861
 C         -6.2339515411        2.9397123027        0.2793189794
 C         -7.3533264470        1.9090051546        0.1266884917
 H         -8.2161599244        2.2897840103        0.6767795740
 H         -7.6410387393        1.8401221326       -0.9228182526
 C         -7.0053341288        0.5122288687        0.6598928723
 H         -7.8356423868        0.1346890365        1.2609196174
 H         -6.1375155060        0.5805931126        1.3200246351
 C         -6.7212848248       -0.5272566109       -0.4244231943
 H         -7.6257794741       -0.7007365101       -1.0115607412
 H         -6.4513607649       -1.4671745816        0.0636572354
 C         -5.5838085303       -0.1466139581       -1.3811319090
 H         -5.3156813607       -1.0306782548       -1.9646959613
 H         -5.9120766901        0.6368304989       -2.0637551078
 H         -6.6487352451        3.9285955144        0.0707446159
 H         -5.8768308972        2.9404624203        1.3117895081
 H         -5.3820227435        2.6300312736       -1.6815485066
 H         -4.4012003608        3.6319127689       -0.5981950097
 O         -3.0790135773        1.9716720313        0.4406701438
 C         -2.1572434444        1.0492504141        0.9032973236
 O         -1.2398298934        1.5442647142        1.5906998579
 O         -3.5664413440       -1.9338993401       -0.6031145140
 C         -1.2482168485       -1.2282260158        1.1221119670
 C         -0.1205260690       -1.3226198640        0.1267696938
 C         -0.3483468964       -1.7443880156       -1.1798526725
 C          0.6921367099       -1.7930923942       -2.0888832860
 C          1.9740882681       -1.4214235673       -1.7208137620
 C          2.2083536919       -0.9826399387       -0.4248816394
 C          1.1619615865       -0.9406178346        0.4891317929
 H          1.3427329803       -0.5830392287        1.4941907896
 N          3.5101524717       -0.6106214042       -0.0283242306
 S          4.3459577182        0.4836130531       -1.0101041403
 O          3.5818112399        1.7026667503       -1.1654300287
 O          4.7210657610       -0.1864443240       -2.2291060545
 C          5.7919693852        0.7733515189       -0.0108156273
 C          6.8405777673       -0.1233969777       -0.0871151902
 C          7.9552348770        0.0811228129        0.7102689112
 C          8.0018605819        1.1715463655        1.5662407197
 C          6.9418398349        2.0634200311        1.6309047692
 C          5.8233504270        1.8642596304        0.8367138494
 H          4.9803030721        2.5370370333        0.8482409901
 H          6.9815556094        2.9117655534        2.2951504082
 H          8.8707057852        1.3295305432        2.1854950847
 H          8.7825303823       -0.6083427749        0.6616043763
 H          6.7626982705       -0.9507386229       -0.7726875076
 H          3.5150161845       -0.2642122670        0.9228661725
 H          2.7870412684       -1.4451465861       -2.4276374354
 H          0.5045719300       -2.1228894764       -3.0999625055
 H         -1.3487895928       -2.0261309160       -1.4721914952
 H         -0.8563776958       -0.7181487693        2.0164850600
 C         -1.7868489096       -2.5792115893        1.5721735653
 C         -1.4102865264       -3.8812902997        0.9379493967
 C         -0.8796915135       -3.5322995243        2.2935780280
 H         -1.2596371459       -4.0596723413        3.1553853120
 H          0.1634777177       -3.2618602564        2.3641046327
 H         -2.1786807089       -4.6348146657        0.8565640911
 H         -0.7248658933       -3.8683893195        0.1054931748
 H         -2.8038758621       -2.5060568626        1.9424697871
