  62
        -98.94702655
 C         -2.2786391433       -0.5367755370       -0.4771161391
 C         -1.4524858578        0.3961325189       -1.1480502576
 C         -1.7435980045        1.8159402331       -0.8996250184
 C         -2.7304990164        2.1543796112       -0.0523577344
 C         -3.0981398998        3.5586952540        0.3283049038
 C         -2.3389202015        4.0201994088        1.5794995117
 C         -0.8300401263        3.7793829485        1.5185801896
 H         -0.3985474404        4.1927560023        2.4334949945
 H         -0.6280963763        2.7050684861        1.5338701069
 C         -0.1336199529        4.4008875472        0.3000208099
 H          0.7869914110        4.8835125517        0.6351997390
 H         -0.7666533029        5.1739810329       -0.1384142925
 C          0.2614414065        3.3865996287       -0.7747247437
 H          0.9651852457        3.8680408404       -1.4594947063
 H          0.7802430208        2.5514960386       -0.2972802559
 C         -0.8942385626        2.8284447686       -1.6157838458
 H         -1.5087282721        3.6505491809       -1.9892869119
 H         -0.4615192385        2.3061059521       -2.4739060920
 H         -2.5316127068        5.0852106983        1.7246926253
 H         -2.7350393117        3.4821940461        2.4440605334
 H         -4.1696157269        3.5875410876        0.5350829338
 H         -2.8811338407        4.2234899374       -0.5056588059
 O         -3.4975074542        1.2345574162        0.5872285910
 C         -3.2830619371       -0.1189994976        0.4014254699
 O         -4.0544613468       -0.8505889807        1.0564374357
 O         -0.5148148401        0.0873488276       -1.9315478870
 C         -2.1150297198       -2.0462995505       -0.5862355477
 C         -1.0943898509       -2.5229434742        0.4206975238
 C         -1.4111214896       -3.5045666542        1.3514776064
 C         -0.4842221089       -3.8952300644        2.3017389155
 C          0.7573976286       -3.2897322112        2.3615853722
 C          1.0838331781       -2.3047268376        1.4347901982
 C          0.1726125835       -1.9576695138        0.4499151074
 H          0.4364196218       -1.2052668901       -0.2727065941
 N          2.3272186070       -1.6571717464        1.4846060059
 S          2.4493273858        0.0141768325        1.3030611814
 O          3.3282903707        0.4382999914        2.3763091840
 O          1.1509806248        0.6383381617        1.2632142138
 C          3.3319347049        0.1929538323       -0.2344144500
 C          2.6609573599        0.3621826323       -1.4279391128
 C          3.3989678582        0.4749973680       -2.5973156092
 C          4.7825858240        0.4139785945       -2.5573258184
 C          5.4420245949        0.2416570864       -1.3493625690
 C          4.7121793826        0.1300014758       -0.1781849488
 H          5.1828898226        0.0103298879        0.7836225757
 H          6.5186712846        0.1949542908       -1.3174777345
 H          5.3484976164        0.5023654432       -3.4714154960
 H          2.8796068252        0.6079185737       -3.5330122712
 H          1.5826303513        0.4051967755       -1.4486690077
 H          2.9151068232       -1.9622068970        2.2471404976
 H          1.4690347115       -3.5691910652        3.1242608011
 H         -0.7396408811       -4.6609793013        3.0186807555
 H         -2.3969116735       -3.9460209735        1.3411966152
 H         -3.0868982834       -2.4721973413       -0.3000340629
 C         -1.7724008072       -2.5345696124       -1.9795465081
 C         -2.1239850319       -3.9395577011       -2.3622673183
 C         -2.8763530680       -2.7889054580       -2.9592571049
 H         -2.7102413909       -2.5413752831       -3.9967265586
 H         -3.8893742333       -2.6137266196       -2.6263170722
 H         -1.4389777470       -4.4874111943       -2.9907107380
 H         -2.6303091095       -4.5481378953       -1.6283135940
 H         -0.8504959295       -2.1220068827       -2.3659313986
