  62
        -98.94648649
 C         -1.4181947656       -1.5673271053       -0.4207801124
 C         -1.2681895769       -0.2450469528       -0.9090151471
 C         -2.4679969714        0.6015329777       -0.8369821093
 C         -3.6301615416        0.0946911184       -0.3895944249
 C         -4.9550511766        0.8077356832       -0.3437275362
 C         -5.1743239628        1.6673147671        0.9077760673
 C         -4.3403915166        2.9472436118        0.9650857687
 H         -4.7395815091        3.5574341782        1.7776723115
 H         -4.4725275195        3.5093140965        0.0400566039
 C         -2.8455522888        2.7067591126        1.2159830897
 H         -2.6948519773        1.6951226997        1.6006919921
 H         -2.4853909804        3.3901768743        1.9886455310
 C         -1.9465543025        2.9010263381       -0.0051620213
 H         -0.9290817850        2.6409400522        0.2992779621
 H         -1.9571017501        3.9525240138       -0.3036818023
 C         -2.3262076299        2.0432583885       -1.2198167962
 H         -1.5220631094        2.1132438358       -1.9563631726
 H         -3.2482291941        2.4145586378       -1.6678874019
 H         -4.9673956939        1.0594337755        1.7915819408
 H         -6.2310120990        1.9435053572        0.9332117635
 H         -5.7231251397        0.0313974358       -0.3654594164
 H         -5.0630111917        1.4285230725       -1.2337881659
 O         -3.7417223230       -1.1880789844        0.0468690993
 C         -2.6412795547       -2.0274142419        0.0768893812
 O         -2.8815407372       -3.1594683150        0.5455043684
 O         -0.2109412902        0.2225530718       -1.4071547666
 C         -0.2851872796       -2.5828149402       -0.3948237769
 C          0.6503621721       -2.3266485125        0.7622250038
 C          0.7773352641       -3.2487704304        1.7949296567
 C          1.6440278696       -3.0099298035        2.8467527294
 C          2.3936323085       -1.8481204771        2.8913930074
 C          2.2699536405       -0.9179586056        1.8652204162
 C          1.4094210587       -1.1661260962        0.8065181738
 H          1.3032784528       -0.4336758653        0.0241027451
 N          3.0336375061        0.2572675362        1.8584915869
 S          2.3915887063        1.6762539287        1.2413986471
 O          3.2459200774        2.7142908929        1.7869753886
 O          0.9887190434        1.8056965224        1.5595811605
 C          2.6631985240        1.6013322967       -0.5158671956
 C          3.6441445217        0.7762529638       -1.0273389643
 C          3.8603668454        0.7653461763       -2.3958696469
 C          3.1029237453        1.5791451824       -3.2236176096
 C          2.1290787613        2.4088944792       -2.6920310503
 C          1.9060631654        2.4227235358       -1.3250272895
 H          1.1473704209        3.0433639055       -0.8760282366
 H          1.5360965897        3.0385472095       -3.3361636769
 H          3.2685849178        1.5636168390       -4.2896060364
 H          4.6150843233        0.1172809475       -2.8122585070
 H          4.2084265219        0.1458437308       -0.3601121610
 H          3.5871952625        0.4230011439        2.6859836286
 H          3.0665431839       -1.6591563198        3.7140647260
 H          1.7332813279       -3.7328532796        3.6435775154
 H          0.1802461789       -4.1490847941        1.7752357443
 H         -0.7663895416       -3.5558968999       -0.2269216385
 C          0.4822351131       -2.6457842831       -1.7024093439
 C          1.2763828455       -3.8760182355       -2.0181708185
 C          0.0198868350       -3.5783408283       -2.7791926608
 H          0.0995022568       -3.2574185442       -3.8068275511
 H         -0.8545799254       -4.1803053374       -2.5773288778
 H          2.2225162687       -3.7612743838       -2.5238250440
 H          1.2542942321       -4.6834089373       -1.3018210445
 H          0.8852453904       -1.6903820865       -2.0108565748
