  62
        -98.94407184
 C         -2.0577507618       -1.2621550440       -0.1434541893
 C         -2.4707416436       -0.1972084785       -0.9799688929
 C         -3.8792329053        0.2070310644       -0.8519029453
 C         -4.6792668670       -0.4436869081        0.0118820959
 C         -6.1156255691       -0.1006529107        0.2784690273
 C         -6.2413489501        0.8960840859        1.4391533295
 C         -5.3169907257        2.1075134393        1.3158104087
 H         -5.5152749667        2.7564702876        2.1716182577
 H         -4.2792095841        1.7759783131        1.3988244946
 C         -5.4894568378        2.9078270272        0.0172570489
 H         -5.5067690445        3.9720227954        0.2618352380
 H         -6.4483652906        2.6659710060       -0.4426785666
 C         -4.3709594509        2.7050965028       -1.0067454041
 H         -4.4746728971        3.4721708354       -1.7789699841
 H         -3.4010256151        2.8557915547       -0.5253307335
 C         -4.3516958630        1.3438712972       -1.7136961069
 H         -5.3389550188        1.1304054187       -2.1284681560
 H         -3.6381108366        1.4100664458       -2.5402892461
 H         -7.2784080652        1.2318572650        1.4952564429
 H         -6.0015086073        0.3763184203        2.3695904859
 H         -6.6454129864       -1.0180928381        0.5403433331
 H         -6.5579100159        0.3177991749       -0.6234499305
 O         -4.2497645261       -1.4714183053        0.7874091713
 C         -2.9317982449       -1.8915717744        0.7454591868
 O         -2.6638282342       -2.8227539371        1.5306144950
 O         -1.7132421403        0.3873461973       -1.7981987295
 C         -0.6181730949       -1.7506368682       -0.1548453480
 C          0.2689558808       -0.6469584245        0.3661456492
 C          0.2733786903       -0.3759342423        1.7318296664
 C          1.0576334823        0.6371198343        2.2503792787
 C          1.8533989933        1.4040093759        1.4167278936
 C          1.8489478813        1.1460302456        0.0531761594
 C          1.0687680083        0.1206354367       -0.4649828287
 H          1.0693856169       -0.0599499822       -1.5279314320
 N          2.6746133626        1.9120913362       -0.7938715012
 S          4.3060661554        1.9022213374       -0.4104076471
 O          4.5542025466        2.8324581272        0.6621433527
 O          5.0000630070        2.1660688045       -1.6510355671
 C          4.6109789963        0.2345504096        0.1464285975
 C          4.5191754749       -0.7851864205       -0.7802519038
 C          4.6740647920       -2.0940246921       -0.3547374962
 C          4.9112542164       -2.3598245670        0.9853384670
 C          5.0036108604       -1.3249785389        1.9027484854
 C          4.8488544145       -0.0135239202        1.4825975872
 H          4.9101834386        0.8198433004        2.1629759155
 H          5.1893136443       -1.5353383381        2.9436718247
 H          5.0247403214       -3.3804326763        1.3155154283
 H          4.6032681964       -2.9011066910       -1.0662734755
 H          4.3393831080       -0.5420531675       -1.8151400305
 H          2.5367662483        1.7099786496       -1.7736699767
 H          2.4751409067        2.1973546773        1.7993398568
 H          1.0510049851        0.8327289245        3.3118949703
 H         -0.3536483607       -0.9720514750        2.3808203279
 H         -0.5789915917       -2.5810911427        0.5627011527
 C         -0.2124139911       -2.2670426478       -1.5194920683
 C          1.0405497556       -3.0789719888       -1.6507737419
 C         -0.2982890720       -3.7355080342       -1.8004927576
 H         -0.6109116497       -4.0536245208       -2.7838848812
 H         -0.6479952901       -4.3762703760       -1.0042983431
 H          1.6487035432       -2.9502687861       -2.5331864956
 H          1.6033878119       -3.2705126516       -0.7497556007
 H         -0.4707204068       -1.5923730001       -2.3265762185
