  62
        -98.93508171
 C         -2.2530564224       -1.1522907420        0.0456194264
 C         -3.1716211622       -0.5707872015        0.9568896110
 C         -4.1124285994        0.4307232663        0.4246822738
 C         -4.0804989423        0.7164671899       -0.8889126099
 C         -4.9198224687        1.6966135926       -1.6689673718
 C         -6.4209958967        1.7370322428       -1.3451686565
 C         -6.8507903375        3.0051201081       -0.6050216595
 H         -6.3061900845        3.8535980215       -1.0245952102
 H         -7.9132286731        3.1756673932       -0.7926549706
 C         -6.6489085652        2.9749376105        0.9089969852
 H         -6.8603343862        3.9767107518        1.2903410995
 H         -7.3777971347        2.2964083865        1.3574446537
 C         -5.2521424654        2.5583394068        1.3737183133
 H         -5.1039811075        2.9517910567        2.3815771712
 H         -4.4887812871        3.0100938230        0.7410358188
 C         -5.0516053620        1.0363741019        1.4315325793
 H         -6.0182390627        0.5292245018        1.3642367701
 H         -4.6326320146        0.7569026256        2.4030462598
 H         -6.7020978514        0.8518019603       -0.7770171421
 H         -6.9649371067        1.6995536781       -2.2904669267
 H         -4.4876440892        2.6931650521       -1.5467570919
 H         -4.7737816233        1.4218053991       -2.7162180906
 O         -3.1924185971        0.1216288262       -1.7335815636
 C         -2.2559464316       -0.8027420643       -1.3034516289
 O         -1.5158133276       -1.2153980307       -2.2204293324
 O         -3.2046314981       -0.8786181706        2.1785165845
 C         -1.2753077655       -2.1642770423        0.6193770778
 C          0.0747951612       -1.5368053990        0.8761524649
 C          0.5918714150       -1.4610406676        2.1640901251
 C          1.8304547495       -0.8876121059        2.3925838176
 C          2.5738733421       -0.3720745377        1.3460728123
 C          2.0663980595       -0.4430096422        0.0550971423
 C          0.8294471017       -1.0304865306       -0.1723375750
 H          0.4372714602       -1.0786512525       -1.1775442826
 N          2.7892374568        0.1082078740       -1.0143214008
 S          4.4337149440       -0.1852616203       -1.1415384038
 O          4.7463234573        0.0078407318       -2.5405253735
 O          4.7925874216       -1.4645203460       -0.5742888284
 C          5.1730902220        1.1306518094       -0.1960471201
 C          6.0838204153        0.8380557708        0.8001617296
 C          6.6512499038        1.8802895718        1.5169029106
 C          6.3008475333        3.1895676246        1.2253573540
 C          5.3872717079        3.4669121092        0.2192084043
 C          4.8174551481        2.4297391627       -0.5016060049
 H          4.1061310374        2.6031676082       -1.2919846352
 H          5.1167210847        4.4862700355       -0.0048326632
 H          6.7419728222        3.9990504725        1.7852278341
 H          7.3621104758        1.6668976407        2.2989131212
 H          6.3220069112       -0.1954208849        0.9955232730
 H          2.3262080762        0.0139780788       -1.9065525503
 H          3.5370217440        0.0793139688        1.5189271874
 H          2.2199311147       -0.8358493583        3.3978112113
 H          0.0098613018       -1.8444905517        2.9893231182
 H         -1.6990554811       -2.4507219733        1.5911525934
 C         -1.1351938601       -3.4145183705       -0.2270670832
 C         -0.6395864292       -4.6741582856        0.4148587394
 C         -2.0738979595       -4.5605307350       -0.0048510525
 H         -2.4097261051       -5.1241316404       -0.8623211112
 H         -2.8232265862       -4.4499783317        0.7654263305
 H          0.0146846556       -5.3177725569       -0.1530126243
 H         -0.4167029262       -4.6430166515        1.4705824385
 H         -0.8294044873       -3.2148023183       -1.2459109357
