  62
        -98.93953437
 C         -1.7365234790       -1.3636284743       -0.0370171729
 C         -2.8573297769       -0.9149156462        0.6959675138
 C         -3.5952545730        0.2337217884        0.1395603633
 C         -3.1631443601        0.8071407515       -0.9993921225
 C         -3.7230713087        1.9560311327       -1.8125270235
 C         -4.7916331658        2.8783931840       -1.2318190267
 C         -4.3160284347        3.7630135426       -0.0795075723
 H         -3.6222059788        4.5085659278       -0.4764650777
 H         -5.1804064572        4.2955105355        0.3229730733
 C         -3.6062759198        3.0367626091        1.0605551922
 H         -2.6878797893        2.5782970577        0.6869148028
 H         -3.3117634415        3.7847887650        1.8020407274
 C         -4.4374149738        1.9739939741        1.7769129939
 H         -5.3733408185        2.4140806118        2.1263690282
 H         -3.8726585358        1.6510126485        2.6561299248
 C         -4.7634006770        0.7188831334        0.9489896782
 H         -5.6318593054        0.8785886512        0.3145847181
 H         -5.0101293081       -0.0879930742        1.6454199097
 H         -5.6652348462        2.3046669929       -0.9367121799
 H         -5.1072179897        3.5388632169       -2.0440027960
 H         -2.8591816134        2.5568886227       -2.1146660418
 H         -4.1186173292        1.5039903801       -2.7287927403
 O         -2.0643486742        0.3451551614       -1.6657016224
 C         -1.3276995979       -0.7412011558       -1.2152380702
 O         -0.3566655422       -1.0346524474       -1.9334254924
 O         -3.2313187029       -1.4502001635        1.7752687055
 C         -0.9284427851       -2.5368812994        0.4836504969
 C          0.5102366408       -2.1359958143        0.7040260116
 C          1.5837165485       -2.9638544737        0.4008008580
 C          2.8834127211       -2.5409420370        0.6226812768
 C          3.1437729255       -1.2858870585        1.1403560804
 C          2.0772836172       -0.4490287020        1.4440867697
 C          0.7769555906       -0.8819130310        1.2388672916
 H         -0.0490209160       -0.2253519463        1.4843974427
 N          2.3288866261        0.8425739062        1.9389113071
 S          3.5092438655        1.7429407778        1.1618304376
 O          4.7977575577        1.4290391885        1.7286445679
 O          3.0851527044        3.1194721707        1.2994690811
 C          3.4709194970        1.2387312003       -0.5494819802
 C          4.6269251596        0.7837265304       -1.1505149188
 C          4.5777814782        0.3769268486       -2.4739689892
 C          3.3778943367        0.4236387170       -3.1665132105
 C          2.2254114516        0.8868845370       -2.5505759869
 C          2.2717476221        1.3022315127       -1.2304312834
 H          1.3863526343        1.6622793245       -0.7297043452
 H          1.2851003501        0.8996263069       -3.0775687968
 H          3.3353133391        0.0943316688       -4.1926546892
 H          5.4715749996        0.0172071359       -2.9577990532
 H          5.5345685590        0.7522751309       -0.5698076733
 H          1.4950160780        1.3930110019        2.0828336571
 H          4.1495329568       -0.9392616785        1.3150137775
 H          3.7062809443       -3.1962202368        0.3822888586
 H          1.4030367769       -3.9415158134       -0.0143731900
 H         -1.3684445573       -2.7862786757        1.4612192442
 C         -1.0840702744       -3.7295205964       -0.4376685770
 C         -1.0461488454       -5.1243411269        0.1094531705
 C         -2.3425870229       -4.5393040398       -0.3615284306
 H         -2.7755135559       -4.9086629865       -1.2790165389
 H         -3.0737482460       -4.2487357278        0.3789238727
 H         -0.5902288805       -5.9001334458       -0.4870724832
 H         -0.9019603522       -5.2421819792        1.1728321008
 H         -0.6625525955       -3.5509512628       -1.4204888465
