  62
        -98.94111822
 C         -2.4708628200       -1.3668954912       -0.0468546700
 C         -3.2942748901       -0.7874871820        0.9545617404
 C         -4.2326833405        0.2482839979        0.5119445911
 C         -4.2780833007        0.5923313487       -0.7874784887
 C         -5.2051553610        1.6029800488       -1.4064460181
 C         -4.7196555715        3.0543358688       -1.2907961672
 C         -4.8110527616        3.6612748080        0.1098011732
 H         -4.6507919820        4.7360689081        0.0040664138
 H         -5.8187097416        3.5189255574        0.5014961231
 C         -3.7852460814        3.1065011077        1.1082642628
 H         -2.9826971013        2.6004744083        0.5655014024
 H         -3.3244435517        3.9326768975        1.6546915333
 C         -4.3652785010        2.1446969969        2.1454948022
 H         -5.0696469912        2.6794384162        2.7864943326
 H         -3.5455561209        1.7838588468        2.7720718220
 C         -5.0784863206        0.9250579270        1.5477466015
 H         -5.2581503204        0.2058287164        2.3504901711
 H         -6.0365875908        1.2214118069        1.1211474618
 H         -5.3324266917        3.6569392091       -1.9652874868
 H         -3.6867963015        3.1078486394       -1.6435257072
 H         -6.1948051610        1.5131121482       -0.9573964581
 H         -5.2789864310        1.3483369394       -2.4659706982
 O         -3.4726974105        0.0188839795       -1.7183792691
 C         -2.5407195602       -0.9559480504       -1.3781738497
 O         -1.8671637301       -1.3528116796       -2.3484865000
 O         -3.2563796899       -1.1367049728        2.1643635702
 C         -1.5206291296       -2.4620117711        0.4081113693
 C         -0.1436174497       -1.9150970908        0.6840626796
 C          0.4642922204       -2.0963365614        1.9206080694
 C          1.7259528102       -1.5826444011        2.1665811697
 C          2.4082595199       -0.8857846003        1.1854684801
 C          1.8057050298       -0.6909302497       -0.0507323098
 C          0.5385810500       -1.2017136400       -0.2925293500
 H          0.0714232999       -1.0453374896       -1.2541352599
 N          2.4935789495        0.0021135011       -1.0625646294
 S          3.1679498091        1.4914454111       -0.6811516385
 O          2.4397468089        2.1455384902        0.3821498819
 O          3.2534846388        2.2046003519       -1.9368256781
 C          4.8126237292        1.0794541913       -0.1362101589
 C          5.6062924694        0.3261238421       -0.9790958794
 C          6.8907787796        0.0000026123       -0.5744016096
 C          7.3587170695        0.4331666117        0.6574341106
 C          6.5510157193        1.1921463709        1.4903225311
 C          5.2643041391        1.5207359907        1.0920888514
 H          4.5981649890        2.1029815401        1.7087908918
 H          6.9165031092        1.5284417205        2.4472661613
 H          8.3588039896        0.1774763418        0.9701060904
 H          7.5214593697       -0.5902964771       -1.2194214300
 H          5.2057744895        0.0125157726       -1.9286657295
 H          1.9777909195        0.0553945415       -1.9296931793
 H          3.3916311398       -0.4854144401        1.3702585203
 H          2.1849440103       -1.7284880815        3.1323972396
 H         -0.0660368194       -2.6300220720        2.6956870191
 H         -1.9377474594       -2.7997311018        1.3700479591
 C         -1.5121778992       -3.6654285305       -0.5262421214
 C         -0.3349291191       -4.0774613796       -1.3535542917
 C         -0.7271838788       -4.8902081605       -0.1588063722
 H         -1.1760361285       -5.8597509306       -0.3118232828
 H         -0.0946829588       -4.8263371308        0.7138570178
 H         -0.5334813090       -4.4684530091       -2.3399242820
 H          0.5667172207       -3.4889069394       -1.2949248014
 H         -2.4876268992       -3.8306268506       -0.9733790715
