  62
        -98.94196745
 C         -1.2181035466       -0.9137320337        0.3905392456
 C         -2.0275365081       -0.6960724912       -0.7476078814
 C         -2.9807522545        0.4255470821       -0.6651540504
 C         -2.9919614389        1.1972746579        0.4353739927
 C         -3.9069303595        2.3524044708        0.7351025567
 C         -5.1356192844        1.8815637569        1.5319304081
 C         -6.3070280619        1.3937287178        0.6803285317
 H         -6.7676714357        2.2490661156        0.1817005957
 H         -7.0498103347        0.9720246185        1.3612917231
 C         -5.9555816554        0.3428763337       -0.3760239842
 H         -6.8744198607       -0.1820238268       -0.6441750569
 H         -5.2738068531       -0.3946511458        0.0510917666
 C         -5.3405491560        0.9467243060       -1.6474085437
 H         -5.4846550296        2.0270140831       -1.6346096049
 H         -5.8779353113        0.5734532426       -2.5216237859
 C         -3.8548393271        0.6279289158       -1.8727900570
 H         -3.4099592875        1.4126490205       -2.4946109539
 H         -3.7633455830       -0.3047008141       -2.4387420549
 H         -5.4885992647        2.7084835269        2.1514542889
 H         -4.8116116105        1.0837881741        2.2051932005
 H         -4.1996641003        2.8589639358       -0.1798750937
 H         -3.3343691896        3.0487785636        1.3518868535
 O         -2.1611641751        0.9804232375        1.4919499016
 C         -1.2527272929       -0.0608087629        1.4924980757
 O         -0.5384194793       -0.1235467756        2.5150641261
 O         -1.9657586573       -1.4057419702       -1.7863554546
 C         -0.2012089110       -2.0393148474        0.4000704316
 C          0.8477516072       -1.8133615824       -0.6635797594
 C          1.4358202822       -2.8428756055       -1.3880718514
 C          2.4187820532       -2.5656252937       -2.3226957483
 C          2.8533314625       -1.2702122547       -2.5385540600
 C          2.2737935443       -0.2340546341       -1.8151923052
 C          1.2782374302       -0.5145285836       -0.8941005455
 H          0.8158875057        0.3018513518       -0.3616153758
 N          2.6775986986        1.0972489203       -1.9952690199
 S          2.7064817790        2.1419355423       -0.6900885776
 O          1.3673915462        2.5269026051       -0.3188066002
 O          3.5734607470        3.2182339654       -1.1216007373
 C          3.5036229924        1.2210443845        0.6137130505
 C          2.7849861782        0.7253597547        1.6817961456
 C          3.4463541623       -0.0291733795        2.6392137431
 C          4.8047464556       -0.2725468407        2.5160534477
 C          5.5155065874        0.2411549990        1.4413485490
 C          4.8603540496        0.9914299545        0.4798112242
 H          5.3787008665        1.4191092679       -0.3628835682
 H          6.5737041708        0.0568497136        1.3501488984
 H          5.3112004590       -0.8623131405        3.2637131002
 H          2.8832720344       -0.4222259026        3.4709097366
 H          1.7271268967        0.9217624570        1.7646159865
 H          3.4735704777        1.2261732588       -2.6021568816
 H          3.6232299608       -1.0585207794       -3.2642974262
 H          2.8604284577       -3.3730131199       -2.8866100919
 H          1.1194373013       -3.8602875327       -1.2265152971
 H          0.3042215800       -1.9794976065        1.3763682464
 C         -0.8897619961       -3.3843590978        0.2908354943
 C         -0.3114915702       -4.5889763141        0.9690006770
 C         -1.5571931729       -3.9529743201        1.5060450006
 H         -2.4977198673       -4.4690010964        1.3848319119
 H         -1.4884329428       -3.3819771233        2.4209957778
 H         -0.3994647188       -5.5473653200        0.4797953735
 H          0.6025233574       -4.4589543252        1.5284999181
 H         -1.3868621687       -3.5195156788       -0.6625299684
