  62
        -98.93986484
 C          1.7831673088        0.5333422468        0.8669219339
 C          2.7898815900        1.2228842450        0.1455357690
 C          4.1589132565        0.7142028862        0.3186734553
 C          4.3941899243       -0.3363514480        1.1235354827
 C          5.7359841282       -0.9550495565        1.4079004650
 C          6.1895015781       -1.9740492437        0.3534879233
 C          6.6228258511       -1.3761120122       -0.9857032664
 H          7.3616849170       -0.5934705789       -0.8104839013
 H          7.1180685190       -2.1719097866       -1.5457390111
 C          5.4704862984       -0.8194149954       -1.8335445006
 H          5.5814741415       -1.1592632526       -2.8657310397
 H          4.5219233143       -1.2184868696       -1.4663549406
 C          5.3870013742        0.7066189788       -1.8652173338
 H          6.2759737332        1.1119166309       -2.3535317822
 H          4.5161321416        0.9893613632       -2.4615759671
 C          5.2478311375        1.3602827528       -0.4842749381
 H          6.1951513614        1.3127631495        0.0521007533
 H          4.9773168296        2.4091500625       -0.6278278035
 H          5.3801083328       -2.6892986256        0.1887769158
 H          7.0361801191       -2.5221080200        0.7735019578
 H          6.4880314254       -0.1715606260        1.5057827267
 H          5.6432356438       -1.4699511039        2.3666464081
 O          3.4018169116       -0.9650612771        1.8093556002
 C          2.0838109802       -0.5596422506        1.6846972553
 O          1.2784949020       -1.2361348304        2.3572087961
 H         -1.7786170848       -0.8198151462        0.8278680829
 C         -1.4143565764       -0.6326667461       -0.1712025165
 C         -0.3408626519        0.2226707754       -0.3714895261
 C          0.1358804892        0.4122255157       -1.6663291602
 C         -0.4487428276       -0.2470887728       -2.7306610174
 C         -1.5229885035       -1.0967372333       -2.5292549870
 C         -2.0045210183       -1.2949141840       -1.2407996132
 N         -3.0820277836       -2.1598456779       -1.0119242943
 S         -4.1801973333       -1.8646339745        0.2052412339
 O         -3.6315800121       -2.2286259976        1.4872626264
 O         -5.3646189556       -2.5907522330       -0.2017196923
 C         -4.5068944877       -0.1105671783        0.1568702070
 C         -4.7973396752        0.4829762095       -1.0560179879
 C         -5.0708546802        1.8406468372       -1.0898924189
 C         -5.0598715725        2.5781274937        0.0839568128
 C         -4.7754756009        1.9666432685        1.2949023379
 C         -4.4925815432        0.6098880147        1.3334860796
 H         -4.2522157172        0.0977393539        2.2519307008
 H         -4.7664244730        2.5403378264        2.2079139299
 H         -5.2706949552        3.6351943290        0.0559546960
 H         -5.2910199631        2.3191606046       -2.0303900473
 H         -4.8094015247       -0.1151266422       -1.9523462279
 H         -3.5137075477       -2.5451122715       -1.8382789832
 H         -1.9779002401       -1.6140886737       -3.3601807746
 H         -0.0680367902       -0.0955523977       -3.7293539870
 H          0.9692259003        1.0798987933       -1.8220393646
 C          0.3106997700        0.9101479257        0.8010175973
 H         -0.1335161706        0.4893593374        1.7168099837
 C          0.0830736849        2.4169671899        0.8261672351
 C         -0.6470384862        3.1608075454       -0.2489511640
 C         -1.2958551949        2.9484684838        1.0829192161
 H         -1.4107961354        3.7904839683        1.7483072401
 H         -2.0977191820        2.2270573556        1.1377119008
 H         -0.2883399955        4.1467461795       -0.5018051319
 H         -1.0254239393        2.6042673599       -1.0915310945
 H          0.9014956634        2.9461252373        1.3015582815
 O          2.5828720601        2.2111933994       -0.6028464453
