  62
        -98.94424248
 C         -1.9758821503       -1.1977871799       -0.1470546497
 C         -2.3694189204       -0.0260300401       -0.8376330800
 C         -3.8100812204        0.2616064098       -0.8296388502
 C         -4.6598568104       -0.5794448301       -0.2132739700
 C         -6.1553789104       -0.4309236702       -0.1391214902
 C         -6.6354238505        0.4917803801        0.9896697095
 C         -6.3826373106        1.9830703700        0.7642472291
 H         -6.7729060806        2.2734052997       -0.2116691210
 H         -6.9581918807        2.5229729002        1.5187558189
 C         -4.9094698807        2.4004080602        0.8762675391
 H         -4.8312670408        3.3020233704        1.4878930389
 H         -4.3454930806        1.6173319304        1.3883185794
 C         -4.2322004306        2.7009553699       -0.4609682509
 H         -3.1836705906        2.9432796500       -0.2681566809
 H         -4.7004762206        3.5735928097       -0.9219232912
 C         -4.2714732104        1.5393999296       -1.4624976706
 H         -5.2764582804        1.4247241594       -1.8682310406
 H         -3.5861790404        1.7703839794       -2.2819455106
 H         -7.7118693205        0.3404559800        1.0979760595
 H         -6.1601821106        0.1790179204        1.9221867897
 H         -6.5351182404       -0.0675688105       -1.0944083703
 H         -6.5585835203       -1.4302310202        0.0383503001
 O         -4.2419921803       -1.7080843499        0.4195657503
 C         -2.8966438303       -2.0307166098        0.4896356505
 O         -2.6507305703       -3.0698931296        1.1350725308
 H          1.4666800596        0.1311711101       -1.0158261398
 C          1.2108369095        0.2941174404        0.0167450801
 C          0.2450093896       -0.4793349095        0.6389307903
 C         -0.0776828906       -0.2074536192        1.9671614202
 C          0.5435115593        0.8196765310        2.6490762299
 C          1.5054338993        1.5937147409        2.0228011998
 C          1.8347990594        1.3323074206        0.6984576599
 N          2.7832741894        2.1275520005        0.0388230497
 S          3.9297585595        1.4818614403       -0.9873626600
 O          4.8632569695        2.5649723103       -1.2042779103
 O          3.3091607897        0.9272749599       -2.1622561299
 C          4.7155962796        0.1963195306       -0.0331097796
 C          4.2582563597       -1.1023167795       -0.1271649793
 C          4.8472375397       -2.0771554592        0.6629396210
 C          5.8755933796       -1.7389997889        1.5287458910
 C          6.3249855595       -0.4295091688        1.6101963907
 C          5.7383052495        0.5499451309        0.8259025804
 H          6.0651576994        1.5769009609        0.8487294301
 H          7.1280484494       -0.1704377786        2.2811981607
 H          6.3309991396       -2.5015484287        2.1406919513
 H          4.4999991297       -3.0960301792        0.5980456213
 H          3.4602581497       -1.3303926197       -0.8138569393
 H          3.1821074193        2.8612729107        0.6054697795
 H          1.9856153792        2.4039950311        2.5501121796
 H          0.2794752992        1.0211950313        3.6763085499
 H         -0.8351145905       -0.8099378991        2.4506953403
 C         -0.5076765603       -1.5827328598       -0.0633500095
 H         -0.4682725503       -2.4806633096        0.5695601208
 C          0.0297492198       -1.9326407901       -1.4341022793
 C          1.1954501999       -2.8648269001       -1.5630458490
 C         -0.1770051801       -3.3216764703       -1.9557341890
 H         -0.3996570000       -3.4507650506       -3.0043136189
 H         -0.6883441401       -4.0222078801       -1.3113249288
 H          1.6157682598       -3.2653457998       -0.6526871789
 H          1.9166753699       -2.6819855702       -2.3461166090
 H         -0.0549296902       -1.1193808903       -2.1455713296
 O         -1.5696901204        0.7411807498       -1.4337745402
