  62
        -98.94717336
 C          1.6079855808        1.5716410316       -0.2462321571
 C          2.7640676299        1.2305023389        0.5023329477
 C          3.5488087098        0.0995653950       -0.0025135153
 C          3.1628379784       -0.5312861793       -1.1262113535
 C          3.8752313666       -1.6815823589       -1.7851749982
 C          3.5259741588       -3.0586551543       -1.2041853275
 C          4.0869584908       -3.3392134071        0.1901771997
 H          3.9400953952       -4.4032363813        0.3862735099
 H          5.1618797592       -3.1557579925        0.1911255657
 C          3.4241011413       -2.5313593772        1.3150719505
 H          2.4767013131       -2.1174470539        0.9620007105
 H          3.1924661400       -3.1935235309        2.1521559711
 C          4.2843330918       -1.3933132008        1.8648411794
 H          5.1789354466       -1.8040905085        2.3381470387
 H          3.7087602906       -0.8683623213        2.6314367277
 C          4.7181397421       -0.3650133799        0.8113854248
 H          5.1316085180        0.5041336544        1.3286939309
 H          5.4890747586       -0.7873153312        0.1671609962
 H          3.9235154249       -3.8102929581       -1.8902097238
 H          2.4397653146       -3.1668815280       -1.1876025704
 H          4.9525641730       -1.5241376108       -1.7252757343
 H          3.5818221917       -1.6680097500       -2.8373253846
 O          2.0580640598       -0.1628062903       -1.8260067449
 C          1.2380917881        0.8718750741       -1.3944432263
 O          0.2441058571        1.0575439214       -2.1227205019
 O          3.1226411630        1.8457084080        1.5405846642
 C          0.7269069403        2.6912535899        0.2861937296
 C         -0.5197881398        2.0427914292        0.8337205300
 C         -0.5126199315        1.5231928911        2.1253959113
 C         -1.6022257545        0.8261869162        2.6136301404
 C         -2.7124774374        0.6105781918        1.8154433918
 C         -2.7216442914        1.1146442856        0.5218852620
 C         -1.6429605906        1.8461507168        0.0451655773
 H         -1.6614983038        2.2203644547       -0.9658561366
 N         -3.8185934055        0.8402236862       -0.3173527424
 S         -4.2870560470       -0.7667635961       -0.3914978412
 O         -4.8199238889       -0.9554706362       -1.7229007082
 O         -5.2033199930       -1.0439389332        0.6880472590
 C         -2.7996292171       -1.7309563461       -0.1660664287
 C         -2.7540568236       -2.6788566764        0.8366196359
 C         -1.5973838072       -3.4215005694        1.0086049419
 C         -0.5076512536       -3.2038244347        0.1797267580
 C         -0.5704918763       -2.2501091923       -0.8239329776
 C         -1.7248173102       -1.5051129382       -1.0023690714
 H         -1.7745869677       -0.7508884486       -1.7719621003
 H          0.2737358766       -2.0633960097       -1.4697553062
 H          0.3949755397       -3.7791877200        0.3178215494
 H         -1.5462658450       -4.1641570071        1.7883675225
 H         -3.6218878027       -2.8111722235        1.4622029900
 H         -3.7092749282        1.2174833273       -1.2481543871
 H         -3.5648667629        0.0528318098        2.1685686842
 H         -1.5842973950        0.4356470779        3.6195544600
 H          0.3685112580        1.6588178371        2.7364713871
 H          1.2852844815        3.1280264028        1.1245187551
 C          0.4623943262        3.7721846315       -0.7395593941
 C         -0.1233175182        5.0763398127       -0.2897306472
 C          1.3060658380        5.0102036377       -0.7342215558
 H          1.5736332416        5.4543921544       -1.6813237463
 H          2.0788316213        5.0865277480        0.0165231545
 H         -0.8395044302        5.5693179711       -0.9292660813
 H         -0.3216472380        5.1947642946        0.7647829537
 H          0.1605366286        3.3892450205       -1.7064237438
