  62
        -98.94745863
 C          2.0405045284        1.0449613722       -0.1272825192
 C          1.1757044942        1.8056328396       -0.9476464834
 C          0.2234148763        2.6772813833       -0.2503902731
 C          0.2102776275        2.6892527372        1.0953932266
 C         -0.7492344609        3.4869173197        1.9305940762
 C         -2.0122667570        2.6788934524        2.2592432488
 C         -2.6640231638        2.0193837540        1.0434838001
 H         -1.9932608823        1.2416225606        0.6715638301
 H         -3.5648916921        1.5109755657        1.3963560388
 C         -3.0287483675        2.9825710373       -0.0939311259
 H         -4.0289601472        2.7321040133       -0.4528904902
 H         -3.0639655111        4.0047517151        0.2850424894
 C         -2.0928891600        2.9188607258       -1.3013661411
 H         -2.5621066060        3.4636571853       -2.1246456657
 H         -1.9799805241        1.8785099047       -1.6139222322
 C         -0.6950947504        3.5152590670       -1.0958846737
 H         -0.2158378365        3.5831232918       -2.0770981703
 H         -0.7804752154        4.5232892502       -0.6848979090
 H         -2.7284260158        3.3422880421        2.7488316999
 H         -1.7422211110        1.8853745096        2.9606778823
 H         -1.0171019913        4.3973537763        1.3969830843
 H         -0.2500442335        3.7558993055        2.8633178096
 O          1.0592707982        1.9495655379        1.8524082325
 C          1.9681095673        1.0835337822        1.2659802108
 O          2.6595196413        0.4351618186        2.0758115239
 O          1.1949858298        1.7512128116       -2.2089839751
 C          2.9950458217        0.0647107085       -0.7861923109
 C          2.5942591210       -1.3443846389       -0.4194466786
 C          3.4977247860       -2.3534936602       -0.1152159990
 C          3.0420447493       -3.6123052754        0.2401392953
 C          1.6886244636       -3.8824711396        0.3234992292
 C          0.7750430528       -2.8811219121        0.0111194557
 C          1.2378123051       -1.6410109294       -0.3901922946
 H          0.5312113899       -0.8613188190       -0.6286043900
 N         -0.6115987386       -3.1053353713        0.0890266397
 S         -1.6125609171       -2.0068217584        0.8831869817
 O         -0.8690649741       -0.8676040158        1.3576160798
 O         -2.3292755430       -2.7715939041        1.8849489715
 C         -2.7787386936       -1.4994230109       -0.3688153752
 C         -4.1279945513       -1.6493270901       -0.1128095342
 C         -5.0469267031       -1.2278354006       -1.0605314893
 C         -4.6045421668       -0.6648751185       -2.2472967615
 C         -3.2476135008       -0.5237186018       -2.4934565800
 C         -2.3247259000       -0.9416615702       -1.5472398780
 H         -1.2647853679       -0.8328922810       -1.7166098258
 H         -2.8992735927       -0.0859282486       -3.4156669517
 H         -5.3176644382       -0.3337672380       -2.9854315419
 H         -6.1020845417       -1.3386525443       -0.8692573929
 H         -4.4254440927       -2.0937046747        0.8229055420
 H         -0.8523877173       -4.0419171837        0.3819160478
 H          1.3378955661       -4.8556732238        0.6329797107
 H          3.7530599593       -4.3892792560        0.4775101831
 H          4.5563954477       -2.1531799591       -0.1435144693
 H          2.8428771985        0.1932978549       -1.8691399322
 C          4.4357106485        0.3893483198       -0.4555716802
 C          5.5261961955        0.0687042751       -1.4328446867
 C          5.1189072334        1.4924089249       -1.2054397662
 H          5.7892047524        2.1440475159       -0.6655130688
 H          4.5507014126        1.9925371254       -1.9761338484
 H          6.4818276233       -0.2563365572       -1.0499504928
 H          5.2420079406       -0.3951658397       -2.3653034641
 H          4.6492033295        0.2963315416        0.6032768653
