  62
        -98.93015988
 C         -2.3616667572       -0.8059735542        0.2899900122
 C         -2.5392866281        0.5971023979        0.3764737452
 C         -3.7941414042        1.1531827326       -0.1580081091
 C         -4.7054054893        0.3201188384       -0.6937748481
 C         -6.0433517906        0.5911495259       -1.3498474299
 C         -6.7262827663        1.9479205500       -1.1993013766
 C         -7.2035953118        2.2702716355        0.2162210618
 H         -7.5820057941        3.2947321152        0.2241655680
 H         -8.0357494161        1.6058927367        0.4621244214
 C         -6.1554359409        2.1199614017        1.3159984373
 H         -6.6296210683        2.3765514267        2.2672351626
 H         -5.8419687400        1.0762521657        1.3849542470
 C         -4.9159230179        2.9998305643        1.1641290277
 H         -4.3350022089        2.9127704658        2.0864796746
 H         -5.2162581621        4.0439028672        1.0563088761
 C         -3.9823414204        2.6348609564       -0.0034504433
 H         -4.3233251467        3.0776754504       -0.9363845388
 H         -2.9926058967        3.0482197574        0.2125714792
 H         -6.0810248866        2.7376323139       -1.5726408906
 H         -7.6070869795        1.9258430090       -1.8467347827
 H         -5.8941234309        0.3955400836       -2.4174456079
 H         -6.7164185658       -0.1911445235       -0.9851397052
 O         -4.4896366177       -1.0242792928       -0.7618253405
 C         -3.3337962154       -1.6262980356       -0.2817779310
 O         -3.3213660866       -2.8608463782       -0.4305572059
 O         -1.6766666729        1.3636299266        0.8875199022
 C         -1.0695969866       -1.3677255076        0.8536344275
 C         -0.0031553964       -1.4741055493       -0.2071318455
 C         -0.2637056219       -2.0652289000       -1.4396269752
 C          0.7324427922       -2.1588309810       -2.3940657870
 C          2.0004348782       -1.6668395051       -2.1405989356
 C          2.2741902955       -1.0806779683       -0.9098368878
 C          1.2710461810       -0.9863527660        0.0454748215
 H          1.4884798263       -0.5081332594        0.9886243471
 N          3.5702938094       -0.6246463904       -0.6160902124
 S          3.7803245257        0.7439465048        0.3501800707
 O          3.5314216494        0.3855043257        1.7233547951
 O          3.0167190149        1.8510805662       -0.1801509604
 C          5.5253780301        1.0201405900        0.1102042367
 C          5.9474336430        1.9704739920       -0.8000150562
 C          7.3074813115        2.1538019649       -0.9956346979
 C          8.2168632044        1.3859241064       -0.2840125849
 C          7.7779723951        0.4363335170        0.6269002704
 C          6.4198764898        0.2489878938        0.8282913711
 H          6.0321730416       -0.4694441185        1.5314369341
 H          8.4880429522       -0.1567515810        1.1802763112
 H          9.2744854459        1.5305420842       -0.4382085872
 H          7.6517295352        2.8934977601       -1.7003653758
 H          5.2041762939        2.5500063583       -1.3238727956
 H          4.1579241871       -0.5771439764       -1.4378966281
 H          2.7749432444       -1.7391394298       -2.8890170008
 H          0.5175623885       -2.6172120581       -3.3477301045
 H         -1.2511524563       -2.4543124877       -1.6369313170
 H         -0.7278084837       -0.6115761343        1.5796927283
 C         -1.2641457128       -2.6709824559        1.6177476229
 C         -0.7693293132       -3.9969201370        1.1322162094
 C         -0.0928474034       -3.3267313043        2.2877494569
 H         -0.2263509890       -3.7355613688        3.2778778174
 H          0.8812619513       -2.8923261308        2.1165038335
 H         -1.3909636593       -4.8588843188        1.3193541903
 H         -0.2509955609       -4.0325326808        0.1873438736
 H         -2.2033483454       -2.6807284744        2.1619726229
