  62
        -98.94321830
 C          1.8253571300        0.6648918801        0.0010162105
 C          2.3380705000       -0.5758340400        0.4607637802
 C          3.6541420401       -0.9705698797       -0.0571104297
 C          4.2805651302       -0.1675435094       -0.9361813994
 C          5.6449907402       -0.4183283792       -1.5085782993
 C          6.7363585901        0.2322778907       -0.6470045390
 C          6.6124834199       -0.0795315198        0.8443559209
 H          5.6977602299        0.3770368700        1.2291722709
 H          7.4507686398        0.4052043301        1.3492860511
 C          6.6096548800       -1.5771714199        1.1812633404
 H          7.2730561699       -1.7466210001        2.0319793905
 H          7.0084667501       -2.1470429696        0.3412823803
 C          5.2393702300       -2.1376198601        1.5671368301
 H          4.7934843199       -1.5133922204        2.3457029202
 H          5.3863310200       -3.1342208402        1.9921366798
 C          4.2277679601       -2.2744233198        0.4219963499
 H          3.3795185601       -2.8564922400        0.7946620397
 H          4.6812905503       -2.8232854896       -0.4061549202
 H          6.6792311000        1.3154536807       -0.7761331787
 H          7.7091443202       -0.1028903992       -1.0112383990
 H          5.8124767803       -1.4914471891       -1.5773529796
 H          5.6813841803        0.0112225811       -2.5110686092
 O          3.7527899701        1.0032104007       -1.3687081091
 C          2.5220364000        1.4568816505       -0.9125644592
 O          2.1895291000        2.5563661806       -1.3926359389
 H         -1.1629259499       -1.0360546101        0.2666319097
 C         -1.3293908999       -0.3073154299       -0.5132509801
 C         -0.5826791400        0.8634336201       -0.5411874797
 C         -0.8026870799        1.7716910704       -1.5718742995
 C         -1.7409839898        1.5036309606       -2.5515001697
 C         -2.4923650997        0.3421991606       -2.5130934901
 C         -2.2819284797       -0.5709329197       -1.4874793103
 N         -3.0359312697       -1.7579805598       -1.4132508608
 S         -3.8293686798       -2.0834466302        0.0255683790
 O         -2.8909617499       -2.5082191405        1.0314064390
 O         -4.8601190297       -3.0342302202       -0.3300951414
 C         -4.5628989300       -0.5207375604        0.4737395794
 C         -3.9375027802        0.2902480293        1.3986055897
 C         -4.4816599503        1.5353340792        1.6722202800
 C         -5.6318456302        1.9465639493        1.0169908100
 C         -6.2507977801        1.1183849896        0.0930623697
 C         -5.7105049399       -0.1261100703       -0.1861143106
 H         -6.1658683498       -0.8044126401       -0.8894611709
 H         -7.1478718500        1.4396883397       -0.4111237103
 H         -6.0483829203        2.9180696392        1.2308890102
 H         -4.0045352504        2.1809566490        2.3923595203
 H         -3.0460035202       -0.0689136107        1.8872912697
 H         -3.6659624396       -1.8878212896       -2.1924523709
 H         -3.2287716296        0.1373589208       -3.2754543402
 H         -1.8946460497        2.2118969409       -3.3513392195
 H         -0.2091812299        2.6699141505       -1.6202588791
 C          0.4624670499        1.0905796599        0.5246125205
 H          0.2487405298        0.3973385696        1.3498430203
 C          0.4481447497        2.5043525597        1.0685792909
 C         -0.6594918004        2.9099578794        1.9922579709
 C          0.7300827795        2.7281641893        2.5228285710
 H          1.2944501495        3.6030939693        2.8087519113
 H          0.9351545395        1.8597237892        3.1323991908
 H         -1.3943779304        2.1590672793        2.2398067706
 H         -1.0550895705        3.9107055194        1.9160062111
 H          0.8272027198        3.2423036400        0.3742893112
 O          1.7246587900       -1.3168612802        1.2760444499
