  62
        -98.93716028
 C         -2.0804966064       -0.8502664223        0.5774678061
 C         -2.0354902977       -0.0741279266       -0.6047986782
 C         -2.0421245984        1.3824345279       -0.4181520724
 C         -2.0371160958        1.8943367727        0.8252065974
 C         -1.9504637559        3.3506035715        1.2012615202
 C         -3.1355940353        4.2425032756        0.7834229086
 C         -2.9472813138        4.9560142635       -0.5609607862
 H         -3.3346467015        5.9732818599       -0.4758183400
 H         -1.8791549256        5.0418927637       -0.7641688311
 C         -3.6453444603        4.3095345016       -1.7608989017
 H         -4.7102614528        4.5498073918       -1.7258471564
 H         -3.2354652254        4.7587346751       -2.6678954885
 C         -3.5221787431        2.7891179465       -1.8627638908
 H         -3.8823139130        2.4823384835       -2.8466456671
 H         -4.1814272299        2.3168333580       -1.1307157222
 C         -2.0975328333        2.2424821201       -1.6465844978
 H         -1.8080574951        1.6025044170       -2.4826490068
 H         -1.3743683498        3.0537125340       -1.5744110907
 H         -4.0500961764        3.6502872911        0.7775011189
 H         -3.2460514492        5.0015737591        1.5594421810
 H         -1.8607335305        3.3622758112        2.2897526572
 H         -1.0234329867        3.7561822892        0.7882793995
 O         -2.0644202401        1.1104127911        1.9397554164
 C         -2.0808250612       -0.2705835667        1.8441364721
 O         -2.0981850421       -0.8635409656        2.9441170779
 H          0.4001214145       -1.3245261698        0.9204500404
 C          0.4347572683       -2.0675597707        0.1355268419
 C         -0.7260285218       -2.7408536712       -0.2241057049
 C         -0.6514385147       -3.7064010172       -1.2191006910
 C          0.5502356330       -3.9566143451       -1.8599334636
 C          1.6904617521       -3.2453737098       -1.5360101604
 C          1.6299874940       -2.2923176808       -0.5246896194
 N          2.7700958448       -1.5603374359       -0.1477053514
 S          2.5538194950        0.0290609975        0.3830509576
 O          2.2302052988        0.0072038894        1.7890339722
 O          1.6343814027        0.7358331960       -0.4794546236
 C          4.2102714046        0.6549617558        0.1651605529
 C          4.5175953312        1.3824584603       -0.9689587843
 C          5.8166199228        1.8334254628       -1.1447981389
 C          6.7815874969        1.5472547930       -0.1908517345
 C          6.4579952213        0.8162296869        0.9427368407
 C          5.1608780991        0.3639287317        1.1254590934
 H          4.8584308935       -0.1987040569        1.9932518609
 H          7.2098636296        0.5978650553        1.6837005895
 H          7.7916023493        1.8986896929       -0.3303159291
 H          6.0697435686        2.4047571021       -2.0232901132
 H          3.7316833107        1.5855694772       -1.6788708747
 H          3.5182434576       -1.6254974854       -0.8248914625
 H          2.6187305465       -3.4223458776       -2.0574961576
 H          0.5938814122       -4.7035681757       -2.6380262785
 H         -1.5365523494       -4.2511000285       -1.5042404664
 C         -2.0042392239       -2.3641329476        0.4872427492
 H         -1.9441170756       -2.7297463478        1.5233972196
 C         -3.2496651648       -2.9285444654       -0.1630742904
 C         -3.7306629214       -4.3029275897        0.1908384594
 C         -4.4844681063       -3.0991615213        0.6680178302
 H         -5.4415511480       -2.8760837043        0.2211335337
 H         -4.4169786983       -2.8305968067        1.7125340905
 H         -4.1755095067       -4.9087371849       -0.5840600391
 H         -3.1585516684       -4.8610794388        0.9164666732
 H         -3.3751418065       -2.5849145173       -1.1833285743
 O         -1.9868850381       -0.5721240034       -1.7605210926
