  62
        -98.94070352
 C         -1.5996580096       -1.0824089407        0.8768365139
 C         -2.8232949916       -1.2672305043        0.1859987957
 C         -3.8173366212       -0.1963079521        0.3597833455
 C         -3.5341575013        0.8752418844        1.1204869962
 C         -4.4497440372        2.0372333258        1.3958723310
 C         -4.4408770398        3.1147542924        0.3026977825
 C         -5.1408954042        2.7264964984       -1.0002602664
 H         -6.1434681785        2.3599173671       -0.7775763035
 H         -5.2518652618        3.6396222654       -1.5884491444
 C         -4.3849181810        1.6873016942       -1.8400519377
 H         -3.3461678574        1.6338088058       -1.5059745243
 H         -4.3689127022        2.0053246558       -2.8848911223
 C         -4.9888606956        0.2835824603       -1.8032367556
 H         -5.9817814013        0.2990255051       -2.2582589460
 H         -4.3559104748       -0.3784271781       -2.3993788909
 C         -5.1066670338       -0.3159199092       -0.3959270669
 H         -5.9152791967        0.1666465005        0.1526475350
 H         -5.3364314428       -1.3796797677       -0.4952634153
 H         -3.4052136459        3.3896749991        0.0909613051
 H         -4.9419997722        3.9956174655        0.7107594397
 H         -5.4676029393        1.6745548361        1.5424455698
 H         -4.1051681635        2.4895526893        2.3284124992
 O         -2.3437391555        1.0185386333        1.7630456002
 C         -1.3551864943        0.0564104329        1.6485901240
 O         -0.3121973878        0.3205290694        2.2809825384
 H          2.2153937057       -1.5807920895        0.8991577903
 C          1.8139361643       -1.4839397319       -0.0981928649
 C          0.4658585963       -1.7083111745       -0.3313345030
 C         -0.0253105159       -1.5647176355       -1.6262190436
 C          0.8215663994       -1.2103344649       -2.6595203532
 C          2.1647519536       -0.9734798238       -2.4205887290
 C          2.6632611110       -1.1070813224       -1.1306680415
 N          4.0232446015       -0.8785830250       -0.8576351783
 S          4.4523250210        0.1220726917        0.4161888565
 O          5.8574760929        0.3906172841        0.2018530728
 O          4.1088603992       -0.5008304811        1.6675048880
 C          3.5101508548        1.6124227572        0.1495016297
 C          2.2447411445        1.7428414860        0.6841475723
 C          1.5149713327        2.8858395907        0.3940346919
 C          2.0545924270        3.8711612843       -0.4170538688
 C          3.3300901434        3.7257543308       -0.9427988852
 C          4.0631562881        2.5850483975       -0.6625665960
 H          5.0609682172        2.4351255183       -1.0423457393
 H          3.7511056006        4.4953938060       -1.5694626032
 H          1.4792669225        4.7568005223       -0.6367806762
 H          0.5252927130        2.9859370593        0.8122852000
 H          1.8313302728        0.9748240412        1.3190423985
 H          4.5725407896       -0.6518936645       -1.6748010255
 H          2.8235329011       -0.6888159629       -3.2268686167
 H          0.4313005606       -1.1081612229       -3.6607896736
 H         -1.0748050211       -1.7396504255       -1.8094548489
 C         -0.4466977351       -2.0712396039        0.8118430817
 H          0.1209849338       -1.9178486270        1.7441787877
 C         -0.8933800163       -3.5263864550        0.7935420473
 C         -0.6796872138       -4.4471270940       -0.3665126970
 C          0.1376107360       -4.6133464308        0.8768538319
 H         -0.0521107241       -5.4611760484        1.5176577004
 H          1.1748570474       -4.3134022253        0.8381196091
 H         -0.1916124094       -4.0604125089       -1.2469358179
 H         -1.4551892850       -5.1668666984       -0.5795705964
 H         -1.8037973771       -3.6787651252        1.3634448863
 O         -3.0940967986       -2.2587377232       -0.5367990126
