  62
        -98.94454730
 C          1.3807475638        1.4605255075        0.4300570679
 C          1.7225621906        0.4277609416        1.3396632956
 C          2.8185696693       -0.4620806987        0.9396295012
 C          3.4169509390       -0.2713505211       -0.2493107253
 C          4.5304123975       -1.1151152369       -0.7969271189
 C          3.9951345878       -2.2551709382       -1.6732884157
 C          2.8735529924       -3.0689482029       -1.0264240708
 H          1.9739433513       -2.4536714546       -0.9399827987
 H          2.6262085045       -3.8812958530       -1.7142481016
 C          3.2212744085       -3.6570462852        0.3482743329
 H          4.3041140290       -3.6837973548        0.4791796526
 H          2.8629921224       -4.6881602514        0.3826801329
 C          2.5804809804       -2.9260943452        1.5297491581
 H          1.5152389007       -2.7854911494        1.3248019182
 H          2.6646606265       -3.5655125429        2.4128658977
 C          3.1949920710       -1.5659009231        1.8864743000
 H          2.8063814738       -1.2695540762        2.8652408984
 H          4.2803243155       -1.6607564471        1.9616143939
 H          4.8277581143       -2.9169439567       -1.9209395141
 H          3.6115102823       -1.8283058065       -2.6029991484
 H          5.1759109259       -0.4776981808       -1.4042111246
 H          5.1106764421       -1.5204123915        0.0299026700
 O          3.0431001559        0.7056106187       -1.1125366094
 C          1.9829697839        1.5572728734       -0.8257342186
 O          1.6987560995        2.3327221323       -1.7571664827
 H         -0.5817863385        0.0819327168       -0.3281158229
 C         -1.1563851254        0.9072450161       -0.7167890271
 C         -0.8702307640        2.1945778626       -0.2827329380
 C         -1.5894919946        3.2492878506       -0.8275951931
 C         -2.5602347149        3.0063783110       -1.7856752081
 C         -2.8472059313        1.7204578485       -2.2065132791
 C         -2.1287612588        0.6579292774       -1.6682523088
 N         -2.3616423487       -0.6650149588       -2.0668130518
 S         -2.0760189516       -1.9303443524       -1.0157694816
 O         -0.6606855680       -2.1392884833       -0.8407627032
 O         -2.8087756924       -3.0374022810       -1.5932741878
 C         -2.8473510946       -1.4432065216        0.5177856895
 C         -2.0931089625       -1.1645176660        1.6385870822
 C         -2.7377521682       -0.7515527776        2.7944793765
 C         -4.1176469067       -0.6269487864        2.8114148283
 C         -4.8638235384       -0.9202902280        1.6795589695
 C         -4.2247796958       -1.3298611021        0.5215392554
 H         -4.7705253992       -1.5777308198       -0.3743436157
 H         -5.9377327980       -0.8278110563        1.6965094098
 H         -4.6129541176       -0.3018541015        3.7126683219
 H         -2.1480835459       -0.5234347991        3.6681813148
 H         -1.0186382398       -1.2596081414        1.6045042901
 H         -3.1688297441       -0.8141026897       -2.6523797685
 H         -3.6043348062        1.5388701213       -2.9535864444
 H         -3.1064670313        3.8349843027       -2.2102936386
 H         -1.3791744786        4.2606054417       -0.5207722679
 C          0.1886615810        2.3325212219        0.7839998911
 H         -0.2153678096        1.8602529777        1.6968760631
 C          0.5079188111        3.7709998320        1.1598441473
 C          1.8930882876        4.1853211645        1.5551464019
 C          1.2969748471        4.6887103925        0.2764590534
 H          1.0012889989        5.7266491460        0.2252719135
 H          1.6654759193        4.2886117539       -0.6542061467
 H          2.6744909106        3.4413723080        1.4913259280
 H          2.0091541395        4.8726530026        2.3798930302
 H         -0.3003383997        4.2268792621        1.7237744483
 O          1.1262147256        0.2516881987        2.4368053796
