  62
        -98.93156164
 C         -2.5946202374       -1.3370775900       -0.3494744860
 C         -2.4965519889       -0.0442051751       -0.9174804163
 C         -3.6896940872        0.8059137102       -0.7860731159
 C         -4.7846433701        0.3324888184       -0.1657196744
 C         -6.0953480894        1.0499333427        0.0195905955
 C         -6.0608335057        2.2980255066        0.9230358752
 C         -5.8738411160        3.6198687737        0.1679997472
 H         -6.2226751165        3.4908454827       -0.8572852191
 H         -6.5146227342        4.3773997326        0.6238694936
 C         -4.4512986625        4.1878354167        0.1564198281
 H         -4.4106064138        4.9698872204       -0.6048618954
 H         -4.2471751240        4.6578621283        1.1211861373
 C         -3.3301568326        3.1820664175       -0.1073275931
 H         -3.1523335053        2.5846769494        0.7904524864
 H         -2.4091287707        3.7387533072       -0.2913017731
 C         -3.5909575376        2.2192395456       -1.2820056694
 H         -2.7507499148        2.2471993679       -1.9784807720
 H         -4.4947000801        2.5023103222       -1.8193048004
 H         -5.2854298902        2.1775719729        1.6793575678
 H         -7.0179890031        2.3369302308        1.4455262850
 H         -6.4884773833        1.3235430032       -0.9620355391
 H         -6.7714732347        0.3121936909        0.4562739014
 O         -4.8404851484       -0.9231903140        0.3577480915
 C         -3.7503256067       -1.7726765408        0.3022705103
 O         -3.9325338816       -2.8772063933        0.8534287792
 O         -1.4772064041        0.3873536407       -1.5161319553
 C         -1.4156499185       -2.2973707348       -0.3708735621
 C         -0.3453608266       -1.7382899580        0.5356005202
 C         -0.4844182897       -1.8952217235        1.9120798640
 C          0.4475023237       -1.3599769243        2.7808380321
 C          1.5309660642       -0.6466769739        2.2976855311
 C          1.6750810308       -0.4788690177        0.9272795647
 C          0.7479246475       -1.0364156234        0.0541449128
 H          0.8641715657       -0.8907784956       -1.0080890766
 N          2.7508609757        0.2775185574        0.4246661723
 S          4.2882244545       -0.0367500110        1.0464944069
 O          4.5632037689       -1.4565731851        1.0057061153
 O          4.3959162274        0.5852512187        2.3424927052
 C          5.3111305767        0.8309808098       -0.1258889499
 C          5.9285277659        0.1274830267       -1.1423208213
 C          6.7039460656        0.8185237066       -2.0602140895
 C          6.8447593687        2.1935049669       -1.9484000493
 C          6.2179351374        2.8858182486       -0.9227773104
 C          5.4425072981        2.2009968188       -0.0009976850
 H          4.9434877122        2.6952794258        0.8160859979
 H          6.3313511358        3.9546116400       -0.8385738950
 H          7.4490132206        2.7287197046       -2.6637650517
 H          7.1945675319        0.2831667250       -2.8571193592
 H          5.7979832183       -0.9419962637       -1.1855743930
 H          2.7665201621        0.2763926144       -0.5864390176
 H          2.2651088887       -0.2234835368        2.9640075508
 H          0.3299990486       -1.4950784217        3.8458797946
 H         -1.3400490166       -2.4381716677        2.2905795790
 H         -1.7809515751       -3.2315692614        0.0764252724
 C         -0.9435807688       -2.5856785219       -1.7802257414
 C         -0.0292503836       -3.7479813295       -2.0218248129
 C         -1.4530802707       -3.8047547489       -2.4857051771
 H         -1.6538668468       -3.7405167845       -3.5446091699
 H         -2.1413926983       -4.4416434704       -1.9493541412
 H          0.7491832830       -3.6489464853       -2.7629079469
 H          0.2514172729       -4.3460214840       -1.1677046452
 H         -0.8018513387       -1.6934438356       -2.3768073756
