  62
        -98.94494004
 C         -1.9521488860       -0.8447487272        0.0535703086
 C         -2.2725661067        0.1055572112        1.0501256658
 C         -2.3815578287        1.4955041512        0.5969805737
 C         -2.1352413889        1.7976291222       -0.6908755902
 C         -2.1642852646        3.1753656692       -1.2961210918
 C         -3.5646812013        3.6498538003       -1.7086765581
 C         -4.4942013887        4.0176452284       -0.5513806414
 H         -5.3539272378        4.5335358457       -0.9832677594
 H         -3.9878386218        4.7225786420        0.1085544376
 C         -4.9968719466        2.8174470476        0.2628973869
 H         -4.8399673694        1.8990730708       -0.3074299730
 H         -6.0722575255        2.9134825897        0.4278540020
 C         -4.3404158143        2.6633134700        1.6348872736
 H         -4.7422374964        1.7639442379        2.1082484977
 H         -4.5969834703        3.5188617367        2.2633835180
 C         -2.8121438363        2.5309915715        1.5916972458
 H         -2.4640248255        2.2079537714        2.5761645419
 H         -2.3550464310        3.4932525842        1.3607502979
 H         -4.0299611437        2.8712523914       -2.3173350991
 H         -3.4359997822        4.5329356345       -2.3386997422
 H         -1.5343082603        3.1324666907       -2.1874150155
 H         -1.7249733138        3.8885556279       -0.5976973854
 O         -1.8072428035        0.8571099833       -1.6163355329
 C         -1.7071782857       -0.4812213585       -1.2708380590
 O         -1.4121611971       -1.2363369204       -2.2178305568
 O         -2.4543634781       -0.1944707875        2.2625190447
 C         -1.7813760642       -2.3000769877        0.4477771900
 C         -0.3789970145       -2.7499519850        0.1178027947
 C         -0.0829789120       -3.9783152383       -0.4586042359
 C          1.2255176678       -4.3077960161       -0.7684548784
 C          2.2579638583       -3.4218751593       -0.5238643831
 C          1.9738362194       -2.1980532696        0.0728405975
 C          0.6679938354       -1.8836223817        0.4066392706
 H          0.4602447141       -0.9283646363        0.8680892125
 N          2.9983950702       -1.2780872863        0.3616253579
 S          2.6422290937        0.3688732625        0.2348713619
 O          2.0109869570        0.8025243034        1.4573068420
 O          1.9275597456        0.6421140465       -0.9918170412
 C          4.2943927685        1.0367230016        0.1529802689
 C          5.0114010789        1.1736996350        1.3267644104
 C          6.3083026060        1.6582932357        1.2667052935
 C          6.8640322689        1.9950485934        0.0411974720
 C          6.1317264908        1.8540763404       -1.1279363504
 C          4.8342843350        1.3686503445       -1.0750430720
 H          4.2232031006        1.2485326701       -1.9554775878
 H          6.5645159627        2.1197027829       -2.0789089063
 H          7.8733367873        2.3725261308       -0.0029545961
 H          6.8794320552        1.7718789344        2.1738603502
 H          4.5328715910        0.9073705204        2.2546758932
 H          3.8646591870       -1.5016339573       -0.1102048156
 H          3.2738969186       -3.6708091403       -0.7902367251
 H          1.4413912833       -5.2622241537       -1.2242437491
 H         -0.8779862131       -4.6718226068       -0.6788197159
 H         -1.9040105377       -2.3239215550        1.5416390352
 C         -2.8578176442       -3.1577709927       -0.1841323999
 C         -3.3490136535       -4.3920485277        0.5100359561
 C         -4.2219356093       -3.1766808496        0.4358522170
 H         -5.0835726760       -3.1956836930       -0.2143786851
 H         -4.3642200520       -2.5907096406        1.3322768680
 H         -3.6157809203       -5.2489933132       -0.0898460668
 H         -2.9061039217       -4.6385243526        1.4631075137
 H         -2.7988269804       -3.1631493412       -1.2668958297
