  62
        -98.93305795
 C          2.5041605301        1.1635732792        0.6373335711
 C          3.3819678404        1.0637082895       -0.4679387587
 C          4.4738475706        0.0756288997       -0.3442286585
 C          4.5586549905       -0.6808909304        0.7625000815
 C          5.5473060006       -1.7765047402        1.0512266917
 C          4.9770263609       -3.1449391003        0.6412768514
 C          5.2224450614       -3.5346396502       -0.8159267685
 H          6.2810762414       -3.7660071600       -0.9514465883
 H          4.6596151216       -4.4515861903       -1.0054638687
 C          4.8146739714       -2.4841688002       -1.8522808086
 H          4.6833568818       -2.9927439901       -2.8093951886
 H          3.8484166713       -2.0550792804       -1.5801686788
 C          5.8559849613       -1.3679656000       -2.0218091682
 H          6.0885023215       -1.2498697499       -3.0821418182
 H          6.7828373012       -1.6698568498       -1.5342636580
 C          5.4273841509        0.0142253899       -1.5066073283
 H          4.9191766110        0.5589123599       -2.3084281983
 H          6.3218179307        0.5931427501       -1.2535443180
 H          3.9026854709       -3.1347703005        0.8442831312
 H          5.4209707809       -3.9143316903        1.2763956715
 H          6.4946044007       -1.5812361700        0.5575181019
 H          5.7058755203       -1.7756843403        2.1317169817
 O          3.6726284302       -0.5734806806        1.7921376513
 C          2.6367848300        0.3376841992        1.7561629511
 O          1.9089757798        0.3297616790        2.7709542209
 O          3.2783915206        1.7514774395       -1.5151623987
 C          1.3340865500        2.1337656190        0.6878125609
 C          0.1150515002        1.4683386888        0.1033576805
 C          0.1077873006        0.9998797289       -1.2076351095
 C         -1.0095110291        0.3633147287       -1.7149751398
 C         -2.1336024293        0.1709343585       -0.9293769101
 C         -2.1257581997        0.6088902584        0.3874571099
 C         -1.0073389799        1.2628537586        0.8905728603
 H         -0.9998070902        1.5928235085        1.9208269903
 N         -3.2563067199        0.4141240881        1.1958893997
 S         -4.0506855396       -1.0634519820        1.1565525394
 O         -4.7247155499       -1.1580114922        2.4328236092
 O         -3.1540759193       -2.1443619018        0.8190479595
 C         -5.2681091593       -0.8478411121       -0.1256883209
 C         -6.1257674395        0.2308823977       -0.0325578411
 C         -7.0822885893        0.4125185976       -1.0183809113
 C         -7.1669485189       -0.4840876024       -2.0732781414
 C         -6.3018495087       -1.5647241722       -2.1500605912
 C         -5.3419877689       -1.7515832021       -1.1673175710
 H         -4.6454055187       -2.5749209120       -1.1887593909
 H         -6.3696356483       -2.2613523922       -2.9702116913
 H         -7.9116446587       -0.3399774225       -2.8400719415
 H         -7.7570908095        1.2514219575       -0.9617185614
 H         -6.0294198898        0.9020997977        0.8043776690
 H         -3.1400324001        0.7365065781        2.1456934797
 H         -3.0023500491       -0.3322022517       -1.3207730403
 H         -1.0063433088        0.0090629788       -2.7347301398
 H          0.9895718308        1.1362923791       -1.8154924693
 H          1.1420379997        2.2883828789        1.7615341708
 C          1.6479432699        3.4959207091        0.0847117210
 C          0.9482290500        4.0624415791       -1.1108684791
 C          0.6653419296        4.6181993889        0.2500295309
 H          1.0357570694        5.6002369090        0.5021930210
 H         -0.2873339205        4.3764251187        0.6978851706
 H          1.5382572201        4.6471724892       -1.7999201989
 H          0.1817591003        3.4718148390       -1.5865690893
 H          2.6965772098        3.7529073593        0.1895154713
