  62
        -98.94092556
 C         -2.3121468983       -0.3368086469        0.3265352964
 C         -3.5519305554       -0.7970357387        0.8313103971
 C         -4.6965741999        0.0968880198        0.6264110521
 C         -4.5165452749        1.2800384023        0.0112225918
 C         -5.5818773044        2.3093233078       -0.2536670761
 C         -6.4000025248        2.0470192772       -1.5257013361
 C         -7.3893384045        0.8843673012       -1.4356692249
 H         -8.0138158701        1.0081000157       -0.5504354612
 H         -8.0428151858        0.9521527508       -2.3076857150
 C         -6.7351608142       -0.5042395033       -1.4167946293
 H         -5.7044191407       -0.4266047274       -1.7706388833
 H         -7.2616541036       -1.1645418165       -2.1096115925
 C         -6.7378325039       -1.1875819681       -0.0493767823
 H         -7.7661681515       -1.3922660375        0.2564299768
 H         -6.2172863723       -2.1439583631       -0.1436314520
 C         -6.0496387916       -0.3813202746        1.0597528363
 H         -6.6745123845        0.4606481511        1.3563137312
 H         -5.9091804086       -1.0362406878        1.9231133417
 H         -6.9619454118        2.9579115525       -1.7445730007
 H         -5.7096854284        1.8752960642       -2.3548839847
 H         -5.0674064304        3.2660205543       -0.3663218647
 H         -6.2515430538        2.3732743369        0.6044050690
 O         -3.3017815064        1.6972829029       -0.4375439711
 C         -2.1753226409        0.8968602546       -0.3088925925
 O         -1.1361805779        1.3936901214       -0.7854480274
 O         -3.6921028763       -1.8967841990        1.4305339753
 C         -1.0886589005       -1.2212769820        0.4723556844
 C          0.0123695071       -0.4968590866        1.2063008461
 C         -0.2933531181        0.1928623068        2.3770250595
 C          0.6880597845        0.8698059445        3.0737012784
 C          1.9957104675        0.8714998636        2.6209828957
 C          2.3167086157        0.1692324229        1.4657194215
 C          1.3278752301       -0.5134953474        0.7701398005
 H          1.6017634126       -1.0434498343       -0.1258230906
 N          3.6510832042        0.1074360191        1.0255883804
 S          4.0098654774        0.0629326793       -0.6226025792
 O          3.4285113310        1.1993868605       -1.3019799913
 O          3.6746863300       -1.2381574435       -1.1428977779
 C          5.7841161863        0.2320488703       -0.5439273278
 C          6.5383359721       -0.8815381341       -0.2252289194
 C          7.9152160382       -0.7547469932       -0.1348955715
 C          8.5122539306        0.4762504212       -0.3634843284
 C          7.7428679981        1.5842588801       -0.6847845773
 C          6.3647245235        1.4645120952       -0.7750936521
 H          5.7270778602        2.2958770458       -1.0301972319
 H          8.2098789532        2.5390827735       -0.8653438611
 H          9.5842474759        0.5721579888       -0.2933619166
 H          8.5170416158       -1.6143919979        0.1120602849
 H          6.0310737477       -1.8185303953       -0.0654642262
 H          4.2394695846        0.7847484416        1.4927060785
 H          2.7613110336        1.4080725731        3.1606836714
 H          0.4328991611        1.4080309244        3.9743537119
 H         -1.3168124150        0.1988227018        2.7273777286
 H         -1.4140022116       -2.0698675024        1.0938820129
 C         -0.6613341174       -1.7488591317       -0.8814941482
 C          0.0126743964       -3.0821887329       -0.9969366754
 C         -1.3958335101       -2.9104532015       -1.4782958718
 H         -1.5843481491       -2.9102628088       -2.5414671355
 H         -2.1926106521       -3.3446253364       -0.8919928552
 H          0.8017554049       -3.1960342983       -1.7253631773
 H          0.1719416360       -3.6397953310       -0.0863382854
 H         -0.3441484936       -0.9581763259       -1.5544172139
