  62
        -98.94339866
 C         -1.9293845302       -0.7687064006        0.5474192987
 C         -2.2216853106       -0.1769045502       -0.7045267010
 C         -2.6066417211        1.2387454496       -0.6636870304
 C         -2.6003145013        1.9002807591        0.5076801699
 C         -2.9359479918        3.3539544989        0.7053288705
 C         -4.4392423619        3.6362330683        0.8355914107
 C         -5.2391571620        3.5136140185       -0.4619302692
 H         -6.2236557221        3.9457784680       -0.2724130790
 H         -4.7630722923        4.1137112890       -1.2378460590
 C         -5.4199336115        2.0731372086       -0.9605079298
 H         -5.2036151211        1.3764917384       -0.1472991401
 H         -6.4616185214        1.9158262083       -1.2488726698
 C         -4.5556716414        1.7066929095       -2.1670497100
 H         -4.7371033510        0.6573466895       -2.4123177005
 H         -4.8521403717        2.3106524097       -3.0273383998
 C         -3.0482296415        1.8853366500       -1.9420269801
 H         -2.5163462114        1.3940473805       -2.7605049203
 H         -2.7890975719        2.9439263801       -1.9422328397
 H         -4.8561806416        2.9615060478        1.5868095905
 H         -4.5467815323        4.6570965581        1.2092894112
 H         -2.4439929819        3.6616204987        1.6307489106
 H         -2.5222965221        3.9389341494       -0.1166609593
 O         -2.2605308310        1.3069476488        1.6843650196
 C         -1.9325922104       -0.0380124711        1.7339919290
 O         -1.6679801902       -0.4610916815        2.8799958788
 O         -2.1665225204       -0.7965311698       -1.7990365813
 C         -1.5342991497       -2.2311400805        0.6163214081
 C         -0.2955103596       -2.4824559697       -0.2105383321
 C         -0.1124854492       -3.6302624093       -0.9712784426
 C          1.0599678008       -3.8177581685       -1.6829120128
 C          2.0715309104       -2.8768235682       -1.6455663125
 C          1.8966400200       -1.7220733585       -0.8891810220
 C          0.7236281400       -1.5391785193       -0.1764821118
 H          0.6012508697       -0.6428550096        0.4156598586
 N          2.8892891196       -0.7285736782       -0.8657230717
 S          2.9978817393        0.3172752313        0.4495477088
 O          2.9867834597       -0.4299161392        1.6881266484
 O          2.0013845889        1.3507381810        0.3097858593
 C          4.6209404990        0.9998460421        0.1664580589
 C          4.7601141286        2.0428187525       -0.7296251507
 C          6.0261364683        2.5504077131       -0.9753156106
 C          7.1259102686        2.0092235833       -0.3260015509
 C          6.9706017191        0.9643007728        0.5723965587
 C          5.7073006893        0.4515395823        0.8220583986
 H          5.5358203397       -0.3531325481        1.5188308583
 H          7.8264193193        0.5478965430        1.0786925784
 H          8.1098544684        2.4064026137       -0.5191736008
 H          6.1498132480        3.3650028534       -1.6704668303
 H          3.8750593284        2.4353522424       -1.2028995205
 H          3.7950545997       -1.0610325777       -1.1662388519
 H          2.9844392204       -3.0247386976       -2.2016820626
 H          1.1889026011       -4.7130821582       -2.2719387232
 H         -0.8886056790       -4.3770306896       -1.0080612628
 H         -1.2777127995       -2.4269057808        1.6691924680
 C         -2.7062999393       -3.1093767308        0.2266139678
 C         -2.8848537288       -4.4590751811        0.8522723173
 C         -3.8006434992       -3.3333310016        1.2250943878
 H         -4.8217929692       -3.3579836219        0.8755573979
 H         -3.6823742293       -2.8750914720        2.1967780580
 H         -3.2821781585       -5.2599005110        0.2470557570
 H         -2.1512594286       -4.7742056611        1.5790816171
 H         -2.9928593195       -2.9798816505       -0.8107084521
