  62
        -98.93736331
 C          1.9709974029        1.0065149151        0.0094019630
 C          2.3243054588        0.0297121992        0.9675424881
 C          2.4487109731       -1.3461971407        0.4712456727
 C          2.1949783246       -1.6098828898       -0.8232965451
 C          2.1961247089       -2.9645920379       -1.4821582937
 C          3.5503429124       -3.6975030687       -1.5435359799
 C          3.7945587472       -4.6725913503       -0.3852552230
 H          2.8305750728       -4.9821742056        0.0203704204
 H          4.2738038405       -5.5714737091       -0.7781803969
 C          4.6826324345       -4.1515154853        0.7484218012
 H          4.5702437664       -4.8274842448        1.5986896362
 H          5.7268666701       -4.1919947926        0.4306858218
 C          4.4013133461       -2.7222351615        1.2124632280
 H          4.9526223811       -2.5494987938        2.1388056801
 H          4.7959009675       -2.0132595629        0.4808790818
 C          2.9112126144       -2.3984813160        1.4369929922
 H          2.7637854958       -1.9863447324        2.4375692355
 H          2.3002263389       -3.2956719786        1.3451851006
 H          3.5585889554       -4.2657245039       -2.4749300020
 H          4.3555817830       -2.9660008698       -1.6035433345
 H          1.4612172204       -3.5946379674       -0.9750145033
 H          1.8358536672       -2.7900833033       -2.4981806373
 O          1.8529810247       -0.6395572905       -1.7147116791
 C          1.7210998114        0.6823748218       -1.3241488631
 O          1.3965112403        1.4607606167       -2.2420959144
 O          2.5166233632        0.2944226224        2.1867542393
 C          1.7605947570        2.4411341021        0.4573057588
 C          0.3383406897        2.8524533461        0.1629183079
 C         -0.0091869494        4.0861066042       -0.3717725741
 C         -1.3328347262        4.3772452754       -0.6547738948
 C         -2.3294290118        3.4474293336       -0.4250398826
 C         -1.9936949843        2.2173676793        0.1308032683
 C         -0.6731835351        1.9410192951        0.4393361589
 H         -0.4248635664        0.9809674624        0.8696525716
 N         -2.9809841918        1.2524938936        0.4025616299
 S         -2.5637023072       -0.3764249746        0.2422240083
 O         -1.9108617886       -0.8088897796        1.4537858890
 O         -1.8456315755       -0.6005834749       -0.9923856316
 C         -4.1896997388       -1.1051515284        0.1558172176
 C         -4.7039862376       -1.4831228058       -1.0697709839
 C         -5.9811175035       -2.0197525160       -1.1243114385
 C         -6.7192483736       -2.1643276349        0.0406767271
 C         -6.1896350523       -1.7800049550        1.2638341782
 C         -4.9128317768       -1.2449966721        1.3256818261
 H         -4.4545341743       -0.9412528102        2.2523206748
 H         -6.7654212509       -1.8961490568        2.1677415985
 H         -7.7127245928       -2.5815396197       -0.0047921329
 H         -6.3936525489       -2.3216415811       -2.0735017083
 H         -4.0892415921       -1.3566530156       -1.9467714400
 H         -3.8575160775        1.4533996883       -0.0602680491
 H         -3.3569256798        3.6668190826       -0.6722232994
 H         -1.5888443081        5.3363843398       -1.0787753199
 H          0.7574173664        4.8141330038       -0.5809009091
 H          1.8998659624        2.4313495797        1.5492785856
 C          2.7960949797        3.3571345705       -0.1606192457
 C          3.2520271449        4.5855863816        0.5672277303
 C          4.1676834253        3.4065332893        0.4408127079
 H          5.0179194880        3.4787413856       -0.2205689714
 H          4.3449531167        2.7972749271        1.3151679241
 H          3.4780501371        5.4710003536       -0.0075441391
 H          2.8147132332        4.7841758615        1.5339806114
 H          2.7206200121        3.3955603264       -1.2416380443
