  62
        -98.94969849
 C         -0.8042814020       -1.7820758543       -0.1429147386
 C         -1.9777938401       -1.6492980467        0.6342627439
 C         -2.9759916326       -0.6944116163        0.1351026156
 C         -2.7287771986       -0.0199069744       -1.0026219391
 C         -3.6640845497        0.9759706141       -1.6265751485
 C         -3.3963321419        2.4089559092       -1.1461480721
 C         -3.2566889995        2.5438095049        0.3704523289
 H         -2.3590857215        2.0190131078        0.7102211026
 H         -3.0980127639        3.6028485466        0.5893013873
 C         -4.4684158228        2.0364975435        1.1645055689
 H         -4.6967929640        2.7605825851        1.9494966463
 H         -5.3411300342        1.9773287422        0.5124440170
 C         -4.2566237999        0.6872270201        1.8535542268
 H         -5.0659586321        0.5429046138        2.5746506133
 H         -3.3181908802        0.7102195340        2.4147976480
 C         -4.2407847732       -0.5381458467        0.9306703744
 H         -4.3090658178       -1.4300215039        1.5608051393
 H         -5.1131316197       -0.5147086058        0.2737580301
 H         -4.2153781642        3.0439269402       -1.4900152395
 H         -2.4750323522        2.7701966748       -1.6083858728
 H         -4.6877868571        0.6925828464       -1.3881176271
 H         -3.5311671703        0.9356212538       -2.7091653085
 O         -1.5821007899       -0.1626884729       -1.7148737565
 C         -0.5819437173       -1.0293260925       -1.2954411964
 O          0.4272311545       -1.0442159484       -2.0235360762
 O         -2.1871327754       -2.3095576064        1.6893391058
 C          0.2675941603       -2.7582838033        0.2999332930
 C          1.5791925240       -2.0543955997        0.5468930810
 C          2.8103552377       -2.6351681050        0.2654575410
 C          3.9854071039       -1.9596168239        0.5441416412
 C          3.9608728469       -0.6930060644        1.0985111126
 C          2.7351132284       -0.1052088613        1.3873860437
 C          1.5608701432       -0.7895535481        1.1194098997
 H          0.6171105681       -0.3213061022        1.3577372158
 N          2.6606552129        1.1788458165        1.9568025586
 S          1.5645697019        2.2682279966        1.3238940197
 O          2.0462369157        3.5595448547        1.7716648853
 O          0.2232699169        1.9308215742        1.7306183897
 C          1.7208213809        2.1607882594       -0.4488393860
 C          0.5759611376        2.1248647697       -1.2141272286
 C          0.6861862675        2.0655182872       -2.5932417342
 C          1.9398863921        2.0415816836       -3.1807651232
 C          3.0839830623        2.0851798442       -2.3992738150
 C          2.9778759170        2.1492553233       -1.0200885983
 H          3.8531049937        2.1910192454       -0.3925716342
 H          4.0581009420        2.0644799839       -2.8610155259
 H          2.0243377665        1.9835296198       -4.2544294548
 H         -0.2052582965        2.0183179532       -3.1979855575
 H         -0.3785263564        2.1273449691       -0.7128434375
 H          3.5542073438        1.6185711524        2.1245460399
 H          4.8777732264       -0.1651016245        1.3120518989
 H          4.9338287545       -2.4232138749        0.3199119432
 H          2.8488638949       -3.6191396182       -0.1722030930
 H         -0.0847127404       -3.1619228896        1.2620479593
 C          0.3795302923       -3.8987016859       -0.6925791899
 C          0.7212171029       -5.2824884592       -0.2288568880
 C         -0.6710304939       -4.9672343097       -0.6837036731
 H         -1.0115077733       -5.3649745128       -1.6278722581
 H         -1.4490186005       -4.8883055168        0.0618809693
 H          1.3367116145       -5.9019768971       -0.8637351825
 H          0.8845414699       -5.4311832432        0.8279454587
 H          0.7529792554       -3.5723127695       -1.6566853129
