  62
        -98.94349115
 C         -1.0029335881       -0.8497356897        0.9292301584
 C         -1.4767737965       -0.8044866729       -0.4061795651
 C         -2.1452555590        0.4435859401       -0.8070121914
 C         -2.1988512210        1.4743210208        0.0539564719
 C         -2.8772077394        2.7861786707       -0.2141670775
 C         -4.3433526926        2.7593962738        0.2404950655
 C         -5.1203376062        1.5373331723       -0.2486396446
 H         -4.7053559207        0.6407041590        0.2172268819
 H         -6.1470584830        1.6402058534        0.1088656172
 C         -5.1256392142        1.3568860910       -1.7729741414
 H         -4.8465762034        2.2928060420       -2.2584469774
 H         -6.1408672963        1.1147119720       -2.0941553587
 C         -4.2183955553        0.2348365038       -2.2817197205
 H         -4.4328323859       -0.6864516975       -1.7340269029
 H         -4.4576343463        0.0533878543       -3.3329612428
 C         -2.7107910007        0.5059661394       -2.1969457657
 H         -2.1934909403       -0.2748689750       -2.7627918427
 H         -2.4784428946        1.4662973193       -2.6631223684
 H         -4.8309500401        3.6688659730       -0.1150615023
 H         -4.3666736517        2.7650793901        1.3326180144
 H         -2.3495226854        3.5669218427        0.3367884277
 H         -2.8171478974        3.0064485285       -1.2786357697
 O         -1.6664905930        1.4219540100        1.3021375266
 C         -1.0553992343        0.2668795610        1.7658999521
 O         -0.5954117737        0.3637371869        2.9209443088
 H          1.5394793265       -0.4294905268        0.4540842960
 C          1.6665085610       -1.4216003616        0.0456307666
 C          0.8164795601       -2.4367689634        0.4671085047
 C          0.9923771338       -3.7096625557       -0.0563810834
 C          1.9813772139       -3.9431103340       -0.9972533983
 C          2.7947357015       -2.9190706497       -1.4466371604
 C          2.6281707496       -1.6413191102       -0.9238008608
 N          3.4280125029       -0.5652307397       -1.3406973421
 S          2.7348210186        0.9515603325       -1.5003119648
 O          1.3652031441        0.8836236848       -1.9524734166
 O          3.6514050359        1.6690276155       -2.3633666014
 C          2.8170408258        1.6554109872        0.1323272551
 C          1.6927765313        2.2546779284        0.6641738449
 C          1.7598996990        2.8049790505        1.9336840579
 C          2.9497745214        2.7516354359        2.6429879099
 C          4.0737863818        2.1552525025        2.0912874463
 C          4.0111686794        1.6003231237        0.8231572127
 H          4.8608285326        1.1250241340        0.3622179352
 H          4.9959186634        2.1172317455        2.6484968481
 H          2.9962976453        3.1751603747        3.6337941335
 H          0.8796715279        3.2530887157        2.3663888279
 H          0.7822995954        2.2591173165        0.0834336535
 H          4.0582153790       -0.7710007685       -2.1024615593
 H          3.5448743696       -3.1004080293       -2.2013874834
 H          2.1063860171       -4.9354982963       -1.4035899792
 H          0.3408878178       -4.5121276213        0.2484339435
 C         -0.2488163935       -2.0563431345        1.4663023176
 H          0.2624769536       -1.6846270535        2.3702455968
 C         -1.1217362730       -3.2181889506        1.9135999411
 C         -2.5468195497       -2.9975422903        2.3232965316
 C         -2.2363750465       -3.7621915887        1.0734596258
 H         -2.4021785009       -4.8298556235        1.0745031750
 H         -2.4160873484       -3.2924289695        0.1199694720
 H         -2.9251318835       -3.5358132655        3.1794389325
 H         -2.9440484021       -1.9973118153        2.2250202174
 H         -0.5623676825       -3.9388905962        2.5022722394
 O         -1.3623404176       -1.7511535211       -1.2264673447
