  62
        -98.93250284
 C          2.2912127658        1.2107123907        0.2860778595
 C          2.5957911894        0.1290040591       -0.5755244030
 C          3.6460575232       -0.7946483748       -0.1081765026
 C          4.2141397750       -0.5993116094        1.0946129735
 C          5.3383238763       -1.4093444790        1.6749500715
 C          6.6754821708       -0.9939693189        1.0287388326
 C          7.3346001615       -2.0857993640        0.1854387140
 H          8.1377754955       -1.6168109734       -0.3869386999
 H          7.7908055448       -2.8215058239        0.8510746607
 C          6.4092650111       -2.8364228468       -0.7771800729
 H          7.0498567003       -3.3753166014       -1.4785253891
 H          5.8441497414       -3.5919799646       -0.2293814828
 C          5.4256317411       -1.9705979528       -1.5750328741
 H          5.3624460057       -2.3737016294       -2.5879501583
 H          5.7963882056       -0.9491017403       -1.6632515152
 C          3.9918519651       -1.9455716170       -1.0127831875
 H          3.2906087901       -1.8654017705       -1.8489937342
 H          3.7838299889       -2.8891016720       -0.5004117597
 H          6.4972151807       -0.1119747807        0.4099043586
 H          7.3779556302       -0.6933715480        1.8074719887
 H          5.3578695087       -1.2135456225        2.7471562074
 H          5.1492166129       -2.4687431713        1.5169393670
 O          3.8711711568        0.4313044648        1.9097468664
 C          2.9196524484        1.3588787140        1.5265373750
 O          2.7221656312        2.2625700956        2.3623513718
 H         -0.0085477755        0.0021228160       -0.7183218631
 C         -0.6306323740        0.6457271200       -0.1133856057
 C         -0.1257724750        1.8634933163        0.3216003094
 C         -0.9440974824        2.6876224461        1.0845739189
 C         -2.2347738997        2.3001497257        1.4006000281
 C         -2.7343971167        1.0868292698        0.9625410544
 C         -1.9245134815        0.2558692512        0.1994455638
 N         -2.4246283728       -0.9814972050       -0.2506191605
 S         -3.8327207259       -0.9362339050       -1.1699526422
 O         -3.8027135687       -2.1346794458       -1.9790625311
 O         -3.9566854548        0.3168906347       -1.8785798151
 C         -5.1333846051       -1.0851961963        0.0369200184
 C         -5.1368868367       -2.1980667847        0.8550537358
 C         -6.1451642965       -2.3334156302        1.7958249256
 C         -7.1286596847       -1.3607975924        1.9001295226
 C         -7.1131698763       -0.2513738364        1.0687758080
 C         -6.1065177900       -0.1092900581        0.1261888276
 H         -6.0503340426        0.7384437356       -0.5378532343
 H         -7.8788688650        0.5031737849        1.1511230015
 H         -7.9120750723       -1.4687127456        2.6335742092
 H         -6.1609161658       -3.1948970395        2.4438709484
 H         -4.3567243694       -2.9317208395        0.7381503487
 H         -1.7253556552       -1.5382887570       -0.7223711018
 H         -3.7387385386        0.7800731362        1.2050722984
 H         -2.8588455795        2.9495937143        1.9951719073
 H         -0.5582482226        3.6330073220        1.4371725384
 C          1.2714657494        2.2873379300       -0.0513368153
 H          1.5385935023        3.1415690174        0.5903364281
 C          1.3749968163        2.7612646377       -1.4965167940
 C          0.3232773648        2.5232244325       -2.5345030570
 C          0.5212055316        3.8980748208       -1.9750520204
 H          0.9680560432        4.6557861065       -2.6006104945
 H         -0.2330357311        4.2701700418       -1.2980053217
 H          0.6547201541        2.3163140874       -3.5409960302
 H         -0.5688298117        1.9824206928       -2.2574538668
 H          2.4011379881        2.7464000956       -1.8502975808
 O          2.0294272820       -0.0795014604       -1.6811392540
