  62
        -98.94072931
 C         -1.7475109637       -0.5530883871       -0.3931031344
 C         -2.9611000140       -0.7819313516       -1.0902741920
 C         -4.1959962795       -0.6551447788       -0.3053375347
 C         -4.1114210509       -0.3899059549        1.0107952476
 C         -5.2865946208       -0.1858904502        1.9215009327
 C         -5.6880395147        1.2943494836        1.9876256606
 C         -5.8321012678        1.9574574104        0.6177635689
 H         -6.1473470201        2.9892328536        0.7873941543
 H         -4.8525791787        1.9964807680        0.1357117659
 C         -6.8307467377        1.2658244219       -0.3208011692
 H         -7.4920964484        0.6170752890        0.2546535709
 H         -7.4545715785        2.0283323092       -0.7919797873
 C         -6.1864804069        0.4583480350       -1.4493045537
 H         -5.4541149142        1.0788394179       -1.9722070139
 H         -6.9666929927        0.1979428978       -2.1695050380
 C         -5.4997439368       -0.8468535767       -1.0276657748
 H         -5.2584361547       -1.4048158750       -1.9373258710
 H         -6.1876941222       -1.4476993714       -0.4292240080
 H         -4.9242052014        1.8351457686        2.5510282627
 H         -6.6307743654        1.3720609196        2.5322492226
 H         -6.1230505056       -0.7845922372        1.5659570285
 H         -5.0090605856       -0.5232951033        2.9215087317
 O         -2.9296822689       -0.2348533174        1.6576557957
 C         -1.7177032665       -0.3061650115        0.9806053446
 O         -0.7243569881       -0.1404097581        1.7109913852
 O         -3.0077269127       -1.0853934901       -2.3126757995
 C         -0.4542549451       -0.6667973166       -1.1796363608
 C          0.5378775501       -1.5268090041       -0.4389432542
 C          0.1741007014       -2.8302408971       -0.1073688933
 C          1.0427877133       -3.6540973170        0.5794205606
 C          2.3050223181       -3.2053747035        0.9287100407
 C          2.6811882674       -1.9114102086        0.5955497116
 C          1.7972565221       -1.0785892809       -0.0770677506
 H          2.1020069822       -0.0703728359       -0.3004793239
 N          3.9491111445       -1.4176548294        0.9377401935
 S          4.7982501796       -0.5054320205       -0.1774164477
 O          4.5030405378       -0.9129019165       -1.5317580147
 O          6.1824568167       -0.6224019639        0.2311583572
 C          4.2673182049        1.1724891046        0.0881894591
 C          4.1588026882        1.6404810694        1.3824985998
 C          3.7912669992        2.9606099762        1.5873760956
 C          3.5474203881        3.7881556879        0.5017862084
 C          3.6640485047        3.3037345296       -0.7921390521
 C          4.0279853330        1.9830183753       -1.0036830184
 H          4.1206598774        1.5621498085       -1.9923854469
 H          3.4723824884        3.9480352430       -1.6357123106
 H          3.2613934359        4.8154353685        0.6642733328
 H          3.6951528315        3.3399158296        2.5919323942
 H          4.3552212090        0.9699720967        2.2022340574
 H          4.5467196050       -2.0739124199        1.4187358013
 H          2.9892575227       -3.8496228196        1.4601223143
 H          0.7413398958       -4.6581899379        0.8382519370
 H         -0.8091942183       -3.1844304760       -0.3872319777
 H         -0.7416455440       -1.2063378690       -2.0985715179
 C          0.1236096052        0.6679268052       -1.6257704908
 C         -0.7646156491        1.8502550980       -1.8690914251
 C          0.1890654643        1.8552414312       -0.7141389991
 H          1.0588819594        2.4933865000       -0.7679150987
 H         -0.2043859998        1.7387871140        0.2830795036
 H         -0.5535477228        2.4842045591       -2.7170202846
 H         -1.8186985200        1.7334352558       -1.6629557870
 H          0.9513698912        0.5378168379       -2.3173152985
