  62
        -98.93286009
 C         -2.2045604655       -1.3341583628       -0.0360160704
 C         -3.0477343684       -0.7762422710        0.9574266868
 C         -4.0274880017        0.2370060516        0.5255972192
 C         -4.0770363175        0.5777955879       -0.7741706918
 C         -4.9797789141        1.5726821157       -1.4585103760
 C         -6.4644668669        1.5351644911       -1.0640619659
 C         -6.9070544880        2.7497962972       -0.2466267265
 H         -6.4227290568        3.6391051516       -0.6553706438
 H         -7.9845198552        2.8800188004       -0.3696756571
 C         -6.6210153170        2.6623616247        1.2514772982
 H         -7.2943896543        1.9321922192        1.7055883734
 H         -6.8542197493        3.6357092239        1.6894823404
 C         -5.1845052884        2.2893256330        1.6243539318
 H         -4.4744325752        2.7988766731        0.9736929609
 H         -4.9993497912        2.6493795150        2.6386898714
 C         -4.9174439818        0.7768666118        1.6117920282
 H         -4.4224567856        0.4840409536        2.5429264826
 H         -5.8656286111        0.2314337070        1.5921865635
 H         -6.6804528410        0.6153637071       -0.5225950492
 H         -7.0525002889        1.5151571324       -1.9830389973
 H         -4.5770398321        2.5755463900       -1.2957202239
 H         -4.8733027085        1.3646803675       -2.5256802149
 O         -3.2325113863        0.0335027673       -1.6944014302
 C         -2.2821331971       -0.9218349571       -1.3655115426
 O         -1.6004629715       -1.2973112727       -2.3383109956
 H          0.3169583702       -0.9176812823       -1.2246203841
 C          0.7940744027       -1.0820552314       -0.2694005299
 C          0.1360543025       -1.8304355173        0.6973100251
 C          0.7585813105       -2.0242295002        1.9247138492
 C          2.0107574942       -1.4882642242        2.1711576186
 C          2.6690121132       -0.7555838864        1.1997596465
 C          2.0514715704       -0.5477102540       -0.0268293690
 N          2.7144194502        0.1810005419       -1.0296877402
 S          3.3841856667        1.6650970441       -0.6224234141
 O          2.6695937290        2.2883216428        0.4682908656
 O          3.4440188261        2.4097535535       -1.8612021150
 C          5.0403594094        1.2509316579       -0.1147476120
 C          5.5128163593        1.6721501648        1.1127760613
 C          6.8071441675        1.3399976286        1.4823582084
 C          7.6015799453        0.5974198219        0.6223777921
 C          7.1131608839        0.1851658952       -0.6086716508
 C          5.8209251417        0.5148931850       -0.9847297623
 H          5.4040827973        0.2164387730       -1.9321591696
 H          7.7336786518       -0.3921798393       -1.2749791042
 H          8.6074199919        0.3384072173        0.9130361769
 H          7.1887184202        1.6603410503        2.4384971782
 H          4.8565398784        2.2418273814        1.7514114240
 H          2.1862774614        0.2487425307       -1.8882251809
 H          3.6447030996       -0.3372658077        1.3852123376
 H          2.4814145708       -1.6446303475        3.1296763295
 H          0.2471013739       -2.5858479761        2.6926262075
 C         -1.2291344688       -2.4059089327        0.4205586587
 H         -1.6383093841       -2.7548984204        1.3816863159
 C         -1.1923887815       -3.6071212349       -0.5160770602
 C         -0.0118011299       -3.9782900024       -1.3576473880
 C         -0.3641668624       -4.8067664500       -0.1611976209
 H         -0.7834378446       -5.7897397190       -0.3125134471
 H          0.2756028582       -4.7250974311        0.7046073147
 H          0.8701868251       -3.3599502031       -1.3072545254
 H         -0.2084878557       -4.3724542537       -2.3430932966
 H         -2.1670836343       -3.8023153079       -0.9527282986
 O         -2.9905998127       -1.1218213887        2.1685339170
