  62
        -98.94299033
 C         -2.6806804567        1.2044963317       -0.1274501677
 C         -2.6960161907        0.2071646088        0.8768970977
 C         -3.8885730595       -0.6520639139        0.9039146108
 C         -4.8776446563       -0.4369862930        0.0173335349
 C         -6.1184319963       -1.2726628238       -0.1026118272
 C         -5.9211218954       -2.4173412095       -1.1064849071
 C         -4.6396477370       -3.2208375075       -0.8842015968
 H         -4.6227995316       -4.0181698610       -1.6304214925
 H         -3.7771939628       -2.5795142805       -1.0802250946
 C         -4.5074100481       -3.8303644060        0.5184252798
 H         -4.1690500508       -4.8639573611        0.4201938417
 H         -5.4829621093       -3.8539525517        1.0054303720
 C         -3.5042155527       -3.1179578948        1.4275956887
 H         -2.5499001298       -3.0073072194        0.9062268268
 H         -3.3283910814       -3.7510632660        2.3013390889
 C         -3.9336069618       -1.7380300559        1.9416275426
 H         -4.9272849591       -1.8039847770        2.3893296210
 H         -3.2246692440       -1.4379155741        2.7188000197
 H         -6.7848022979       -3.0820172758       -1.0458267599
 H         -5.8888889151       -1.9932587891       -2.1128209818
 H         -6.3765833834       -1.6734999082        0.8755808147
 H         -6.9317687494       -0.6331822385       -0.4496841956
 O         -4.8365606409        0.5485673698       -0.9160883899
 C         -3.7353063650        1.3817116908       -1.0224015959
 O         -3.8126429169        2.2256769379       -1.9384961919
 H          0.9402261512        2.1815211000        1.0757524653
 C          0.9159313609        1.4625544663        0.2717815224
 C         -0.2326683365        1.3117027579       -0.4873620255
 C         -0.2252067901        0.3814614199       -1.5240325211
 C          0.8939604740       -0.3869094768       -1.7771060669
 C          2.0332464353       -0.2465649200       -1.0030933621
 C          2.0426311815        0.6864925692        0.0232798330
 N          3.1888123436        0.8300570845        0.8191766403
 S          4.6978843115        0.8942054395        0.0949503861
 O          5.5397247713        1.5872887806        1.0454533312
 O          4.6262002061        1.4622834183       -1.2311886133
 C          5.2074436938       -0.8094986164        0.0047257278
 C          5.6351262264       -1.3367665583       -1.1979268622
 C          6.0408667377       -2.6615789851       -1.2427890100
 C          6.0130145230       -3.4310846038       -0.0899365579
 C          5.5830322758       -2.8857557095        1.1107182889
 C          5.1773278695       -1.5618545683        1.1624896453
 H          4.8388119042       -1.1019074921        2.0758748624
 H          5.5619743967       -3.4875596236        2.0050575238
 H          6.3282835637       -4.4619049248       -0.1271161051
 H          6.3758160847       -3.0871666443       -2.1750918444
 H          5.6346828626       -0.7027477505       -2.0704151274
 H          3.1002737435        1.5147917368        1.5553714965
 H          2.9081987577       -0.8464086247       -1.1926639463
 H          0.8806442058       -1.1060437348       -2.5822674086
 H         -1.1157644731        0.2698750578       -2.1284576440
 C         -1.4819662908        2.1271807074       -0.2563420668
 H         -1.6602511919        2.7344337062       -1.1559451219
 C         -1.4025167146        3.0487414352        0.9427061957
 C         -0.7409837635        4.3879543676        0.8213599294
 C         -2.2312175264        4.2964882715        0.9510329285
 H         -2.6889456591        4.6058203292        1.8786551691
 H         -2.8364008038        4.4950401763        0.0783657981
 H         -0.3307829160        4.6579678608       -0.1402846083
 H         -0.1774515951        4.7655197855        1.6616671646
 H         -1.3035765438        2.5092930392        1.8778379460
 O         -1.7654195978        0.0418481562        1.7078462135
