  62
        -98.94571544
 C         -2.1845838997       -1.1805463996        0.1970786397
 C         -1.8386346397       -0.2578833894       -0.8203812601
 C         -2.6267750797        0.9845649006       -0.8496005699
 C         -3.6105800898        1.1650409804        0.0504647801
 C         -4.4684059998        2.3928744803        0.1500952603
 C         -3.8631806799        3.4215170901        1.1152577905
 C         -2.3838830699        3.7101267702        0.8593697807
 H         -2.0697389700        4.4695769401        1.5789302908
 H         -1.8034432199        2.8091372102        1.0731522405
 C         -2.0681429998        4.1912228905       -0.5639493392
 H         -1.3823206499        5.0388537005       -0.5013924090
 H         -2.9801740698        4.5468924706       -1.0445598192
 C         -1.3991354497        3.1425040607       -1.4544917894
 H         -0.5348781998        2.7242052206       -0.9325988194
 H         -1.0254741297        3.6477986109       -2.3488866892
 C         -2.2958524097        1.9877403108       -1.9191884997
 H         -3.2077867596        2.3897536208       -2.3650826796
 H         -1.7539258296        1.4320831109       -2.6900034397
 H         -4.4347250500        4.3480051101        1.0368110106
 H         -3.9675294400        3.0441923899        2.1353680904
 H         -4.5821666898        2.8313387605       -0.8394189797
 H         -5.4508496599        2.0953483902        0.5206642401
 O         -3.9107937798        0.2560228502        1.0134732699
 C         -3.2031228698       -0.9319455098        1.1160193597
 O         -3.5679262098       -1.6689992300        2.0551639795
 O         -0.9243820296       -0.4569148692       -1.6593686800
 C         -1.4526852697       -2.5056442296        0.2979864295
 C          0.0384557103       -2.3090408796        0.4313325997
 C          0.9603615304       -3.1754077095       -0.1440570304
 C          2.3192079804       -2.9712549394        0.0228441998
 C          2.7905595103       -1.8966821396        0.7535752400
 C          1.8776712402       -1.0192201697        1.3250387301
 C          0.5167258802       -1.2379940097        1.1746144199
 H         -0.1887604898       -0.5544623398        1.6319635600
 N          2.3479972101        0.0972900002        2.0366145104
 S          3.6094252701        0.9683654104        1.3599398706
 O          4.8643200801        0.3786914503        1.7579561506
 O          3.3979548200        2.3335179703        1.7906343609
 C          3.4198318603        0.8281520107       -0.4088814894
 C          4.4922547103        0.4261629709       -1.1791516394
 C          4.3240692005        0.3052092411       -2.5491764494
 C          3.0904586105        0.5765754612       -3.1205892895
 C          2.0232705004        0.9822404710       -2.3341811295
 C          2.1902358303        1.1143877608       -0.9663069395
 H          1.3715603702        1.4196161106       -0.3337397395
 H          1.0539853904        1.1688497811       -2.7669158395
 H          2.9555915406        0.4685309014       -4.1852045595
 H          5.1516625905       -0.0090120687       -3.1646180994
 H          5.4285340003        0.2096321108       -0.6906735194
 H          1.6189616400        0.7121687401        2.3665515204
 H          3.8452255403       -1.7216197696        0.8928716901
 H          3.0216232504       -3.6559279093       -0.4267361703
 H          0.6133750205       -4.0136118394       -0.7252997006
 H         -1.8145596997       -2.9829092798        1.2212739394
 C         -1.8289822195       -3.3829049894       -0.8807360407
 C         -1.9401081895       -4.8687053694       -0.7218368009
 C         -3.1761800995       -4.0384522595       -0.8884080109
 H         -3.7182926394       -4.0956282593       -1.8203711009
 H         -3.8078269896       -3.8790967696       -0.0261139909
 H         -1.6358296094       -5.4999321793       -1.5432124010
 H         -1.7411176896       -5.2856421696        0.2539864290
 H         -1.4570455395       -2.9933128592       -1.8213822905
