  62
        -98.94041633
 C         -2.3172626701       -0.7999464897        0.1680810294
 C         -3.0650667801       -0.0638449390        1.1248442789
 C         -3.9386602001        0.9945882906        0.6037527082
 C         -3.9742042901        1.2196680397       -0.7218817319
 C         -4.8505651901        2.2325453593       -1.3987331026
 C         -6.1983009901        1.6209397290       -1.8059997022
 C         -6.8880610001        0.8439287898       -0.6847174817
 H         -7.8422376901        0.4855210395       -1.0770321714
 H         -6.2895947301       -0.0370613001       -0.4414621611
 C         -7.1336302501        1.6572254206        0.5938418678
 H         -7.0623677001        2.7230826404        0.3743420271
 H         -8.1510780701        1.4650601308        0.9407687679
 C         -6.1955571401        1.3148252914        1.7528272180
 H         -6.1917692401        0.2339070115        1.9140903987
 H         -6.5921700301        1.7791998320        2.6595376477
 C         -4.7434832301        1.7840637413        1.5974720177
 H         -4.7253729801        2.8471555011        1.3488539770
 H         -4.2448943701        1.6472900219        2.5614049378
 H         -6.8518086902        2.4247968488       -2.1497542427
 H         -6.0303391701        0.9385139585       -2.6425168617
 H         -5.0097429202        3.0729235397       -0.7257423631
 H         -4.3374715402        2.5874509887       -2.2942111728
 O         -3.2346230601        0.5084242492       -1.6082980314
 C         -2.3899341701       -0.5165305906       -1.1960730708
 O         -1.7817058701       -1.0627890012       -2.1363943904
 H          0.1701446299       -0.5511863304       -1.0029678308
 C          0.6598454899       -0.7279579698       -0.0562576806
 C         -0.0192272601       -1.4118258691        0.9425655398
 C          0.6318967399       -1.6458183884        2.1478284200
 C          1.9291733999       -1.2047794082        2.3437201697
 C          2.6004795299       -0.5196170889        1.3469976892
 C          1.9592541899       -0.2811520897        0.1382125191
 N          2.6211250799        0.4292273897       -0.8773906714
 S          4.1824918699       -0.0301190206       -1.2879544711
 O          4.3651499299        0.4177200485       -2.6509368014
 O          4.4037691899       -1.4355442004       -1.0373571602
 C          5.2071739299        0.9528004901       -0.2133695318
 C          5.0172375299        2.3208742501       -0.2085281627
 C          5.8108479899        3.1036133007        0.6145584868
 C          6.7778858099        2.5090477512        1.4116199572
 C          6.9589532899        1.1346706312        1.3922893081
 C          6.1672517499        0.3456157506        0.5721040486
 H          6.2678961199       -0.7271677794        0.5287012893
 H          7.7115984299        0.6746222316        2.0121668784
 H          7.3938968899        3.1209907516        2.0514096568
 H          5.6723351098        4.1726763207        0.6324253861
 H          4.2569354499        2.7433255797       -0.8442893829
 H          2.0578091599        0.5627695891       -1.7050211715
 H          3.6102662899       -0.1732223888        1.4941154190
 H          2.4228990399       -1.3931338376        3.2846683298
 H          0.1106800199       -2.1679544578        2.9367084703
 C         -1.4259594201       -1.9029925793        0.7115041901
 H         -1.8539527001       -2.1446142687        1.6972785703
 C         -1.4728001301       -3.1751346399       -0.1250654090
 C         -0.3271161501       -3.6745771404       -0.9484197387
 C         -0.7093106601       -4.3909375296        0.3100073718
 H         -1.1849913501       -5.3568698996        0.2342890524
 H         -0.0504347701       -4.2858233790        1.1587177517
 H         -0.5574223601       -4.1288593010       -1.9002455884
 H          0.5911515999       -3.1074964104       -0.9550673291
 H         -2.4620905401       -3.3470760501       -0.5377911789
 O         -3.0051569701       -0.2896150582        2.3627712491
