  62
        -98.93410968
 C         -2.3700337770       -0.4208582963        0.2308008696
 C         -1.5839343100        0.1902036022       -0.7716258109
 C         -1.6489359400        1.6612211435       -0.8527661137
 C         -2.3972946932        2.3377457947        0.0350584580
 C         -2.6939288604        3.8163829692        0.1184009615
 C         -1.5872967808        4.8092537955       -0.2445292528
 C         -0.1879012867        4.4215003040        0.2535875926
 H          0.2410259731        5.2605852843        0.8049690921
 H         -0.2520843393        3.5774245163        0.9440997867
 C          0.7694351278        4.0566673481       -0.8818451381
 H          1.7952917662        4.1418075202       -0.5145968438
 H          0.6480919519        4.7716634245       -1.6988957160
 C          0.5981083885        2.6360303142       -1.4128899255
 H          1.3188603930        2.4836284430       -2.2201658853
 H          0.8469797053        1.9319655481       -0.6153403092
 C         -0.8092626504        2.2891071683       -1.9294503374
 H         -1.2961523588        3.1600169660       -2.3622564805
 H         -0.7067095993        1.5276530515       -2.7072169926
 H         -1.8764165194        5.7680935129        0.1901470936
 H         -1.5590675716        4.9497017836       -1.3238842361
 H         -3.5683784932        4.0132009489       -0.5106143614
 H         -3.0037147717        3.9831419496        1.1536251658
 O         -3.0933605966        1.7066074961        1.0263337281
 C         -3.0980942632        0.3305338692        1.1490537399
 O         -3.7834962803       -0.1018607791        2.1009545054
 H         -0.4726846892       -1.0890988161        1.8265276056
 C         -0.1274086844       -1.8845095247        1.1809077700
 C         -1.0221200837       -2.4875045108        0.2975306096
 C         -0.5336549383       -3.5092684015       -0.5070044917
 C          0.7969907562       -3.8921152010       -0.4404295040
 C          1.6849613249       -3.2524809050        0.4015965488
 C          1.2117331790       -2.2269361501        1.2117723786
 N          2.0729173150       -1.4897623675        2.0557697831
 S          2.3088752712        0.1111528875        1.6094308349
 O          3.2518606938        0.6393203189        2.5728785656
 O          1.0399015115        0.7860030438        1.5259617562
 C          3.1013638107        0.0079648450        0.0125117532
 C          2.3631443898       -0.3485340749       -1.0989749261
 C          3.0190805470       -0.4897529413       -2.3131214418
 C          4.3860419839       -0.2781427035       -2.3969861857
 C          5.1118253513        0.0778553008       -1.2700337017
 C          4.4660450030        0.2171031045       -0.0527174614
 H          4.9865888365        0.4927160312        0.8503110822
 H          6.1749092605        0.2449156831       -1.3353185734
 H          4.8873139759       -0.3900120636       -3.3455243688
 H          2.4465324074       -0.7654409231       -3.1841150873
 H          1.2970049003       -0.4988717429       -1.0252887294
 H          2.9763079436       -1.9250441828        2.1889892410
 H          2.7276364678       -3.5312301339        0.4291847031
 H          1.1480687161       -4.6902455979       -1.0765904035
 H         -1.1675706172       -4.0148591905       -1.2116359978
 C         -2.4283109735       -1.9396941217        0.3629037154
 H         -2.7862140504       -2.1251711580        1.3906266408
 C         -3.5368360314       -2.4317198071       -0.5575889579
 C         -3.3688878086       -2.7855090756       -2.0015101916
 C         -3.7546998226       -3.8446148770       -1.0096641838
 H         -4.7735042815       -4.2032284165       -1.0315537524
 H         -3.0419609358       -4.6012277789       -0.7273935540
 H         -2.3720157521       -2.7660753126       -2.4104075584
 H         -4.1214342563       -2.4377685340       -2.6945461586
 H         -4.4446816594       -1.8824700028       -0.3136513339
 O         -0.8750109850       -0.4586881693       -1.5833344701
