  62
        -98.94159638
 C         -1.9921184331       -1.4990895197        0.0265667255
 C         -2.2177914104       -0.5335516020       -0.9853481898
 C         -3.5590887614        0.0740594719       -1.0054322409
 C         -4.4725258783       -0.2947002235       -0.0903926507
 C         -5.8502730211        0.2866586111        0.0348663461
 C         -5.8643401574        1.4816421117        0.9982400852
 C         -4.7704560257        2.5125371182        0.7193521615
 H         -4.8975492709        3.3245747157        1.4386402650
 H         -3.7953157340        2.0606762191        0.9165496523
 C         -4.7858395479        3.0844473908       -0.7052145690
 H         -5.7555637726        2.8989108621       -1.1684310778
 H         -4.6556796720        4.1673236264       -0.6487854035
 C         -3.6787829681        2.5499568030       -1.6157577487
 H         -2.7131209768        2.6520646582       -1.1137604525
 H         -3.6474443898        3.1733187626       -2.5134897839
 C         -3.8349140520        1.0944006171       -2.0744033926
 H         -4.8301706900        0.9481743685       -2.4987499762
 H         -3.0958211348        0.9137024814       -2.8604136428
 H         -6.8427546523        1.9618131239        0.9386532792
 H         -5.7304459664        1.1079682441        2.0160598966
 H         -6.2002137164        0.5951308493       -0.9483642372
 H         -6.5156678592       -0.4873409179        0.4210784107
 O         -4.2206168391       -1.2215512521        0.8682246474
 C         -2.9850124279       -1.8384156670        0.9516052884
 O         -2.8926621596       -2.6703494077        1.8762329883
 H          0.1729538094        0.2711425602       -0.2970134289
 C          0.6514410646       -0.1505605111        0.5747593535
 C          0.3232725973       -1.4404435716        0.9710369114
 C          0.9506429593       -1.9710512323        2.0916434155
 C          1.8780271900       -1.2258410206        2.7998485442
 C          2.2035006769        0.0580349139        2.4010201813
 C          1.5853514489        0.5953618477        1.2788702042
 N          1.9215099499        1.8962792150        0.8510639756
 S          3.5396240848        2.1786647213        0.5142580510
 O          4.2750462883        2.2374429143        1.7523364486
 O          3.5623823015        3.3725723332       -0.2991464802
 C          4.0552129941        0.7623431464       -0.4376915689
 C          4.6317408925       -0.3172143289        0.2011703288
 C          4.9503931095       -1.4419906615       -0.5429835859
 C          4.6915647004       -1.4671838227       -1.9044885255
 C          4.1192228032       -0.3715343962       -2.5325538461
 C          3.7898125044        0.7525259513       -1.7927723158
 H          3.3421335772        1.6236678115       -2.2439933393
 H          3.9192558285       -0.3923315778       -3.5916817923
 H          4.9352676763       -2.3457656755       -2.4801093598
 H          5.3955939600       -2.2953427640       -0.0575829140
 H          4.8251010089       -0.2558309324        1.2591878228
 H          1.3544191875        2.2106986647        0.0761000871
 H          2.9263749190        0.6518043094        2.9369319974
 H          2.3516895765       -1.6484885084        3.6727569514
 H          0.6961648119       -2.9698815067        2.4147151617
 C         -0.6781107329       -2.2487149135        0.1878035359
 H         -0.9317898401       -3.1338965043        0.7914515114
 C         -0.1242365216       -2.7563799172       -1.1384842839
 C          1.1088849686       -2.2202344054       -1.7946557420
 C          1.1329706015       -3.5752905302       -1.1589784666
 H          1.1716484596       -4.4487975164       -1.7915577714
 H          1.6700290846       -3.6765530239       -0.2279735000
 H          1.6469433212       -1.4216737412       -1.3093191745
 H          1.1067324669       -2.1480300062       -2.8712996691
 H         -0.9202486240       -3.0727022152       -1.8054288205
 O         -1.3607779519       -0.1781310305       -1.8358224663
