  62
        -98.93744432
 C          1.7637200356       -0.3872518264        0.5109042520
 C          2.7921270854       -1.2254145541        0.0195744261
 C          4.1658393173       -0.7244285852        0.1743566450
 C          4.3646843679        0.4660579348        0.7692419414
 C          5.6946348218        1.1451573814        0.9353907977
 C          6.1309201476        1.7855771311       -0.3978693945
 C          7.3837814054        1.1642997870       -1.0158963749
 H          7.4659947078        1.5419614002       -2.0373241716
 H          8.2605132779        1.5115091310       -0.4651083448
 C          7.4253808898       -0.3666062632       -1.0452354375
 H          8.2240256672       -0.6494246004       -1.7343345102
 H          7.7140004731       -0.7447799850       -0.0634172310
 C          6.1300879123       -1.0648355846       -1.4790226738
 H          6.3979235390       -1.9186678812       -2.1046831694
 H          5.5221623815       -0.3998645379       -2.0927671309
 C          5.2766361757       -1.6103376344       -0.3187214485
 H          4.7766654692       -2.5242593504       -0.6528568465
 H          5.9273742639       -1.8796156532        0.5177891152
 H          5.2995209961        1.7099023068       -1.1017930375
 H          6.3165965352        2.8499897500       -0.2463329074
 H          5.5741000401        1.9103184370        1.7025458322
 H          6.4355570516        0.4247489259        1.2749859145
 O          3.3493817964        1.2417639632        1.2315397132
 C          2.0259778033        0.8413764264        1.1158318782
 O          1.2019248635        1.6509493502        1.5812168325
 O          2.5703675577       -2.3402061728       -0.5256028048
 C          0.3217345460       -0.8486818977        0.3930350167
 C         -0.4838313316        0.1618516208       -0.3834868613
 C         -0.0009960601        0.5905867633       -1.6185859272
 C         -0.6842176684        1.5354408347       -2.3570836965
 C         -1.8736156556        2.0652331483       -1.8870174907
 C         -2.3703576392        1.6370799749       -0.6629587694
 C         -1.6824115314        0.6826412371        0.0768664585
 H         -2.0852233082        0.3822604603        1.0293111625
 N         -3.5703309659        2.1608411504       -0.1614931517
 S         -4.6477152547        1.1735287693        0.6417273461
 O         -5.9218683848        1.8472063400        0.5065447874
 O         -4.2090774602        0.9285913584        1.9921650599
 C         -4.6651780620       -0.3523248853       -0.2840212471
 C         -4.4356445016       -1.5468626414        0.3655731112
 C         -4.4463926489       -2.7235058550       -0.3667616390
 C         -4.6828195323       -2.6842312382       -1.7316928206
 C         -4.9178283928       -1.4758563379       -2.3701121369
 C         -4.9113693383       -0.2975900391       -1.6420718791
 H         -5.1004723988        0.6547256274       -2.1097371877
 H         -5.1043713586       -1.4490898278       -3.4315809980
 H         -4.6857172722       -3.6005788791       -2.3006178509
 H         -4.2681148336       -3.6637663926        0.1303967250
 H         -4.2502428823       -1.5316611188        1.4270306571
 H         -4.0377404566        2.8172545944       -0.7686356649
 H         -2.4054417615        2.8123295280       -2.4562579075
 H         -0.2910241400        1.8633896857       -3.3074944026
 H          0.9296808902        0.1784727828       -1.9840868759
 H          0.3606552929       -1.7806283686       -0.1903591503
 C         -0.2363773914       -1.1579386707        1.7656224715
 C         -1.2985960930       -2.2006088569        1.9347777284
 C          0.0992921471       -2.4733842148        2.4002200548
 H          0.2970074869       -2.4987208968        3.4614094775
 H          0.7066568925       -3.1579220313        1.8262999787
 H         -2.0618019747       -2.0346911685        2.6804004940
 H         -1.6455563205       -2.7066833125        1.0468569518
 H         -0.2674305219       -0.2864404274        2.4107919520
