  62
        -98.94640810
 C         -1.6362876657       -1.3884084381       -0.0692363959
 C         -2.6964450801       -0.8695314665        0.7089741762
 C         -3.2849240883        0.3860980646        0.2278866190
 C         -2.8041057964        0.9640884974       -0.8884002311
 C         -3.3046244157        2.2419650744       -1.5068444671
 C         -2.7185843503        3.5157709611       -0.8816522637
 C         -3.2403040950        3.8578082515        0.5142725691
 H         -4.3306225127        3.8566676310        0.5065901880
 H         -2.9175127766        4.8767539761        0.7373069025
 C         -2.7304222676        2.9256493478        1.6224384450
 H         -2.3954259341        3.5204300913        2.4755496768
 H         -1.8615452015        2.3705638668        1.2595248359
 C         -3.7705869408        1.9320165960        2.1399427138
 H         -4.5864262012        2.4741975099        2.6231236139
 H         -3.2964008281        1.2982412130        2.8941452289
 C         -4.3613991820        1.0197329918        1.0568907381
 H         -5.0484819950        1.5822680481        0.4252362987
 H         -4.9162490067        0.2181521849        1.5508104333
 H         -2.9588056028        4.3468430452       -1.5487134435
 H         -1.6309984431        3.4224032917       -0.8429379681
 H         -3.0172536581        2.2103737878       -2.5598784555
 H         -4.3928173216        2.2760644766       -1.4466328660
 O         -1.7913690504        0.4245843247       -1.6169026623
 C         -1.1717509899       -0.7532984577       -1.2225533485
 O         -0.2463293973       -1.1227602290       -1.9655524324
 H          0.1359406715       -0.5125965767        1.5472768973
 C          0.9084763348       -1.1854237308        1.1942714963
 C          0.5402329141       -2.3714273549        0.5704852199
 C          1.5449557758       -3.2247521903        0.1346386762
 C          2.8771730597       -2.8846088477        0.3003539782
 C          3.2375098143       -1.6917900056        0.8992259273
 C          2.2397533427       -0.8366451895        1.3491615065
 N          2.5910366042        0.3943680800        1.9435321058
 S          3.4822325140        1.4425570884        0.9833543282
 O          4.8389181011        0.9629091577        0.9070502223
 O          3.3016804199        2.7477061411        1.5790047343
 C          2.7211720546        1.3812996437       -0.6266712731
 C          3.2327342539        0.5343564807       -1.5882634670
 C          2.6003750911        0.4591800159       -2.8180808299
 C          1.4760523767        1.2294096706       -3.0649972405
 C          0.9781414746        2.0799742301       -2.0910585263
 C          1.5985616556        2.1517106611       -0.8553030718
 H          1.2409808142        2.8012709304       -0.0707521886
 H          0.1003447149        2.6738273071       -2.2912080890
 H          0.9778665297        1.1616774102       -4.0187991380
 H          2.9787630882       -0.2071757533       -3.5760591110
 H          4.1129079811       -0.0438391254       -1.3599479431
 H          1.7959414767        0.8877175550        2.3246958953
 H          4.2690218258       -1.4014190569        1.0172293743
 H          3.6463641893       -3.5560546463       -0.0495536163
 H          1.2859058864       -4.1536417535       -0.3461090085
 C         -0.9309131733       -2.6528340491        0.3851035888
 H         -1.3655899986       -2.8992654804        1.3655654819
 C         -1.2112495432       -3.7925693179       -0.5717229487
 C         -1.2460757069       -5.2071000952       -0.0773213674
 C         -2.5180819579       -4.5180094994       -0.4673857952
 H         -3.0140358688       -4.8217248388       -1.3769980391
 H         -3.1952061453       -4.2081027221        0.3152988837
 H         -1.0637774508       -5.3754959710        0.9733405824
 H         -0.8707388083       -5.9882378507       -0.7211244538
 H         -0.8208588962       -3.6042742152       -1.5654823005
 O         -3.1246483560       -1.4224670090        1.7586508945
