  62
        -98.94048019
 C          2.3190823707        0.7526272305        0.1453458586
 C          3.1018939809        0.0894995811        1.1272448288
 C          4.0084977010       -0.9599610290        0.6464248092
 C          4.0367955009       -1.2485165296       -0.6670101806
 C          4.9504694010       -2.2525261798       -1.3065897703
 C          6.2627617708       -1.5984359698       -1.7614660508
 C          6.9268746508       -0.7346971492       -0.6890919613
 H          6.2885885807        0.1268431808       -0.4796610016
 H          7.8571122407       -0.3495244492       -1.1123331916
 C          7.2284933311       -1.4716285685        0.6233590590
 H          8.2394406211       -1.2132232881        0.9453831888
 H          7.2073533213       -2.5491121285        0.4563620296
 C          6.2892977512       -1.1197141680        1.7785654290
 H          6.2351981811       -0.0337752980        1.8892860985
 H          6.7187534114       -1.5212657975        2.7001584991
 C          4.8596174813       -1.6638703983        1.6654498395
 H          4.3659706314       -1.5048424279        2.6284871695
 H          4.8890446515       -2.7371448984        1.4670729900
 H          6.0525918606       -0.9670250603       -2.6279699010
 H          6.9505678009       -2.3860958598       -2.0743182405
 H          5.1572184112       -3.0507471994       -0.5963323499
 H          4.4442543609       -2.6739711203       -2.1767146100
 O          3.2564236607       -0.6135512202       -1.5761201708
 C          2.3830446306        0.4023350998       -1.2035814112
 O          1.7439086803        0.8794214592       -2.1610164014
 H         -0.1907278394        0.4336569095       -1.0070397809
 C         -0.6704629593        0.6321421699       -0.0594524009
 C          0.0128217907        1.3538702805        0.9097193287
 C         -0.6244869992        1.6134030310        2.1170617886
 C         -1.9125875091        1.1606982209        2.3446752490
 C         -2.5891531091        0.4412460203        1.3762027295
 C         -1.9617333992        0.1773331798        0.1655036295
 N         -2.6376624792       -0.5606487908       -0.8234778700
 S         -4.1609881794       -0.0198519413       -1.2860349501
 O         -4.3482590595       -0.5079561820       -2.6345277898
 O         -4.2941188196        1.4055368688       -1.0919310408
 C         -5.2679500991       -0.8912620110       -0.1970231395
 C         -5.2244014488       -2.2717246310       -0.1974292888
 C         -6.0818739686       -2.9684577907        0.6388312717
 C         -6.9651144586       -2.2769555904        1.4547660715
 C         -6.9992619288       -0.8910053904        1.4406505908
 C         -6.1434982791       -0.1878478507        0.6068041403
 H         -6.1311500893        0.8896455893        0.5651936498
 H         -7.6870950588       -0.3555418202        2.0751204806
 H         -7.6311410684       -2.8219015502        2.1049719318
 H         -6.0583817884       -4.0462519007        0.6519439122
 H         -4.5259283089       -2.7696232712       -0.8492500987
 H         -2.0692087193       -0.7421719611       -1.6388960300
 H         -3.5917698790        0.0851020302        1.5473792198
 H         -2.3948909290        1.3684240913        3.2874848890
 H         -0.0992790892        2.1654139214        2.8826481083
 C          1.4075915506        1.8603254806        0.6441113582
 H          1.8381725407        2.1562648611        1.6138631480
 C          1.4247302402        3.0925250901       -0.2516262524
 C          0.2628231300        3.5388163195       -1.0828735625
 C          0.6496830401        4.3167366702        0.1369744171
 H          1.1109804999        5.2845076302        0.0118808065
 H          0.0021509702        4.2413036205        0.9975320772
 H         -0.6487234299        2.9616424194       -1.0532051021
 H          0.4764131998        3.9523180491       -2.0569921627
 H          2.4065048001        3.2592748301       -0.6842144926
 O          3.0475519811        0.3729760917        2.3534558487
