  62
        -98.94752762
 C          0.8179240007        1.1573686396        0.5961433391
 C          1.3058947100        0.8033455793       -0.6847947810
 C          2.2199908096       -0.3447747710       -0.7195807113
 C          2.5023928898       -1.0099551510        0.4147680787
 C          3.4467180094       -2.1741009714        0.5438724184
 C          4.9183870396       -1.7613135619        0.6906011078
 C          5.5776769893       -1.2423839723       -0.5880511925
 H          6.6527374294       -1.2044188726       -0.4009685530
 H          5.4132830487       -1.9559030923       -1.3959407524
 C          5.1052966497        0.1509134779       -1.0261980625
 H          4.6143053802        0.6504317481       -0.1876985723
 H          5.9710960998        0.7595269975       -1.2972752729
 C          4.1575723792        0.1528065481       -2.2259494821
 H          3.8620560795        1.1859202982       -2.4255075721
 H          4.6815798687       -0.2234025221       -3.1073467423
 C          2.8803938090       -0.6739022714       -2.0240948415
 H          3.1077460185       -1.7376634215       -2.0791775815
 H          2.1791381787       -0.4210679612       -2.8227661613
 H          4.9945013002       -1.0035074319        1.4737819077
 H          5.4719061294       -2.6413905721        1.0261258876
 H          3.3426350288       -2.8309819814       -0.3189505615
 H          3.1523327396       -2.7193250212        1.4422835985
 O          1.9414343704       -0.6895885207        1.6119684588
 C          1.1069961309        0.4092490696        1.7360221491
 O          0.6890663714        0.6100080998        2.8958527892
 O          1.0068176899        1.4196533094       -1.7397899109
 C         -0.0630729088        2.3827879199        0.7509347394
 C         -1.2775816592        2.2781027403       -0.1384952901
 C         -1.7658723491        3.3355470205       -0.8949501600
 C         -2.8946212195        3.1700546608       -1.6786962195
 C         -3.5625928899        1.9604187511       -1.7158444792
 C         -3.0853230700        0.8972359709       -0.9565080593
 C         -1.9529902097        1.0651057106       -0.1773432697
 H         -1.5861313697        0.2413057905        0.4177544802
 N         -3.7175177205       -0.3517146188       -0.9943515689
 S         -3.6386190904       -1.4064051388        0.2925935711
 O         -4.6762412009       -2.3781018184        0.0162899516
 O         -3.7440855696       -0.7215947486        1.5602704111
 C         -2.0578869008       -2.2078414794        0.1352859605
 C         -1.3062702604       -2.4466581496        1.2681718603
 C         -0.1148508507       -3.1433046900        1.1482904199
 C          0.3032621686       -3.5829571903       -0.0976081603
 C         -0.4552758717       -3.3221259101       -1.2281200900
 C         -1.6513142714       -2.6329979696       -1.1136186096
 H         -2.2707644817       -2.4197859894       -1.9687466493
 H         -0.1206292222       -3.6580753803       -2.1962435801
 H          1.2242559884       -4.1363976506       -0.1850389806
 H          0.4795750696       -3.3327562102        2.0279357696
 H         -1.6580654899       -2.0743586893        2.2182121504
 H         -4.5945628207       -0.3905800385       -1.4911340986
 H         -4.4419504402        1.8332966513       -2.3284197888
 H         -3.2616976194        3.9971870309       -2.2672638795
 H         -1.2613379287        4.2875325703       -0.8760093403
 H         -0.4101346484        2.3816776302        1.7954964495
 C          0.7547320216        3.6356973496        0.5085852190
 C          0.4191324023        4.9110430698        1.2197805290
 C          1.6454015722        4.1396420794        1.6026843586
 H          2.6126010422        4.5405344590        1.3388107382
 H          1.6385985224        3.5945434595        2.5358235886
 H          0.5476472425        5.8453827897        0.6943249489
 H         -0.4187728774        4.8984159202        1.9006012893
 H          1.1271660812        3.6968974494       -0.5077461812
