  62
        -98.93561653
 C         -2.3199327455       -0.6454827990        0.8774025270
 C         -3.4932252534       -1.0339987977        0.1828891387
 C         -4.6420438472       -0.1201662918        0.3057883124
 C         -4.5261573649        1.0021343072        1.0365907250
 C         -5.5951239192        2.0447672816        1.1875373621
 C         -5.4701379379        3.1298488819        0.1087597637
 C         -5.3265437772        2.5776277010       -1.3094974198
 H         -5.2766082641        3.4325849468       -1.9872745990
 H         -4.3741422489        2.0483248178       -1.3902841909
 C         -6.4646463234        1.6443439400       -1.7456329144
 H         -6.7722318663        1.9165856354       -2.7574493230
 H         -7.3287603578        1.7853585813       -1.0954570235
 C         -6.0910013799        0.1613681938       -1.7769868811
 H         -5.1713392205        0.0275290528       -2.3518727306
 H         -6.8852175497       -0.3784748252       -2.2993447073
 C         -5.9058616440       -0.5085458729       -0.4096966183
 H         -6.7779346976       -0.3130586472        0.2173476565
 H         -5.8352531562       -1.5873905319       -0.5761759023
 H         -6.3499237959        3.7736126940        0.1635882010
 H         -4.5895093777        3.7374813438        0.3301508950
 H         -6.5713154191        1.5675957561        1.1264323514
 H         -5.4870712763        2.5072865320        2.1700419091
 O         -3.3855148136        1.3409253544        1.6924231114
 C         -2.2640486423        0.5326625585        1.6267467795
 O         -1.2897143670        0.9598407356        2.2810955297
 H          1.5937212669       -0.8711647275        0.9060399090
 C          1.1844059941       -0.8325871974       -0.0921989762
 C         -0.1621348387       -1.0950070418       -0.2989068981
 C         -0.6706207759       -1.0174120136       -1.5918637227
 C          0.1545787718       -0.6772361221       -2.6478400511
 C          1.4957242559       -0.4104377304       -2.4371058252
 C          2.0167780346       -0.4946630302       -1.1506833775
 N          3.3878880305       -0.2834674449       -0.9274168392
 S          3.9098483215        0.4161800657        0.5169720955
 O          3.8228603235       -0.5670685304        1.5669207884
 O          3.2241746214        1.6689757792        0.7424328781
 C          5.6216299859        0.7076930592        0.1125023458
 C          6.0327828082        1.9771317654       -0.2465497321
 C          7.3623102346        2.1812329997       -0.5819284122
 C          8.2518246759        1.1177536166       -0.5560462191
 C          7.8243289893       -0.1509009673       -0.1927060496
 C          6.4972261296       -0.3614293161        0.1456310814
 H          6.1216601962       -1.3261993253        0.4439378662
 H          8.5195458834       -0.9745267667       -0.1707268598
 H          9.2855255112        1.2792815182       -0.8179316548
 H          7.6982630713        3.1668946926       -0.8610544592
 H          5.3069269714        2.7745272947       -0.2445317744
 H          3.8482046747        0.1434212745       -1.7202872639
 H          2.1370039682       -0.1428642484       -3.2631361888
 H         -0.2515978097       -0.6162547513       -3.6463491174
 H         -1.7147238248       -1.2339279943       -1.7587521086
 C         -1.0406642192       -1.4657705561        0.8689523552
 H         -0.5030109975       -1.1705576423        1.7852495720
 C         -1.2921461333       -2.9659826258        0.9590588751
 C         -1.0164285452       -3.9199688561       -0.1600278251
 C         -0.1290594134       -3.9097205807        1.0457890061
 H         -0.1833926558       -4.7343251816        1.7403857885
 H          0.8593022091       -3.4865193958        0.9396203146
 H         -0.6263178612       -3.5232456932       -1.0837438578
 H         -1.7037573429       -4.7408820329       -0.2947080136
 H         -2.1495101897       -3.1934721491        1.5842876980
 O         -3.5988129089       -2.0787523007       -0.5076470799
