  62
        -98.94024236
 C         -1.7527843532       -0.8031616903        0.1246895007
 C         -3.0594701211       -1.0789734221        0.5852408481
 C         -4.0296086362        0.0327340154        0.5455724715
 C         -3.6187835127        1.2330529410        0.0950697096
 C         -4.4298719015        2.4903967758       -0.0712694060
 C         -5.3452045284        2.4462175869       -1.3059536155
 C         -6.0870574199        1.1278731295       -1.5107889506
 H         -6.6029737194        1.1832712223       -2.4730890071
 H         -5.3617796206        0.3149106221       -1.5798604578
 C         -7.1260946022        0.7928906185       -0.4433838227
 H         -7.8757950281        1.5867591148       -0.4119081339
 H         -7.6289172156       -0.1256456834       -0.7569285183
 C         -6.5859421446        0.5791397019        0.9719360846
 H         -6.3538537344        1.5270516251        1.4498309387
 H         -7.3877429375        0.1233731109        1.5603430350
 C         -5.3912211738       -0.3652123146        1.0625055156
 H         -5.6401806291       -1.3063477347        0.5589167497
 H         -5.2397477256       -0.6347751493        2.1149118088
 H         -6.0646421069        3.2634109806       -1.2320473326
 H         -4.7271399817        2.6195160096       -2.1902797551
 H         -3.7175159436        3.3086276567       -0.1968188492
 H         -5.0032863575        2.6858908213        0.8299561285
 O         -2.3416358920        1.4551456540       -0.3296260309
 C         -1.3825509668        0.4598273861       -0.3326393740
 O         -0.2659761516        0.8187268170       -0.7512628222
 O         -3.4105387642       -2.2112233816        1.0157685474
 C         -0.7200307468       -1.9147156943        0.1205702751
 C          0.4856101353       -1.5112716674        0.9316811141
 C          0.2981148477       -1.0706776514        2.2403448990
 C          1.3723791060       -0.6928052978        3.0211122209
 C          2.6591227027       -0.7385294929        2.5116465038
 C          2.8585301654       -1.1820078169        1.2110101189
 C          1.7767007838       -1.5754216718        0.4329922341
 H          1.9652504107       -1.9104768774       -0.5725829837
 N          4.1561448727       -1.2673114682        0.6709932525
 S          4.5202482723       -0.4601770166       -0.7506192735
 O          3.6806028881       -0.9377404186       -1.8173248944
 O          5.9439899562       -0.6520406892       -0.9238657355
 C          4.1958807822        1.2566938424       -0.3906051700
 C          2.8954703585        1.7196738248       -0.3853921200
 C          2.6638113446        3.0419318442       -0.0367603657
 C          3.7223926781        3.8713953624        0.2980805228
 C          5.0227825899        3.3888671578        0.2873349810
 C          5.2629703241        2.0685589437       -0.0546966018
 H          6.2565070690        1.6506275759       -0.0802844918
 H          5.8459271954        4.0353915208        0.5458293113
 H          3.5319284014        4.8985286837        0.5672115891
 H          1.6477637689        3.4038585255       -0.0314606436
 H          2.0766278578        1.0687656262       -0.6489018751
 H          4.8876747189       -1.0925291267        1.3463666908
 H          3.5007068515       -0.4385651628        3.1175821107
 H          1.2086930252       -0.3535168137        4.0327805816
 H         -0.7079281170       -1.0283268423        2.6354013376
 H         -1.2036146971       -2.7656430706        0.6234896244
 C         -0.3884599158       -2.3173498757       -1.3009479645
 C          0.0753444153       -3.7102795668       -1.6008971772
 C         -1.2949944628       -3.2702419927       -2.0181164827
 H         -1.4890382388       -3.1069389912       -3.0676882129
 H         -2.1442441518       -3.6526620377       -1.4706616785
 H          0.8279043812       -3.8470695111       -2.3631008545
 H          0.1566935347       -4.3987444124       -0.7733184059
 H          0.0386163492       -1.5052211503       -1.8801111542
