  62
        -98.93720482
 C         -1.9982580977       -0.4571187339        0.1960183651
 C         -2.7377197369        0.7528802288        0.1790481790
 C         -4.1236906323        0.6914263938       -0.3148171219
 C         -4.6255880509       -0.4912343247       -0.7158230332
 C         -5.9730688406       -0.8597123320       -1.3006213265
 C         -7.1445638682        0.1164603665       -1.2372758217
 C         -7.6857818105        0.3736624841        0.1687334598
 H         -8.4426982674        1.1584810013        0.1058190115
 H         -8.1781610178       -0.5355928137        0.5227452000
 C         -6.6455024655        0.7692736840        1.2136913230
 H         -7.1646366093        0.9097317274        2.1657453106
 H         -5.9353488822       -0.0483594114        1.3530016315
 C         -5.8720902696        2.0519391296        0.9142334842
 H         -6.5720172852        2.8714848029        0.7396725352
 H         -5.2852003531        2.2978381011        1.8035337777
 C         -4.8985083922        1.9770700687       -0.2746671582
 H         -4.1603623231        2.7759863048       -0.1572927396
 H         -5.4127581494        2.1453769307       -1.2179807273
 H         -6.8816765749        1.0519713570       -1.7222430236
 H         -7.9524191005       -0.3281939597       -1.8248165385
 H         -5.7820580358       -1.1033890715       -2.3515855045
 H         -6.2618339855       -1.7975177002       -0.8155355172
 O         -3.8770402639       -1.6298544023       -0.6847185276
 C         -2.5657009105       -1.6544648343       -0.2368565633
 O         -2.0503865312       -2.7882197797       -0.2862195109
 O         -2.2549633496        1.8526321873        0.5637495204
 C         -0.5778737078       -0.3779121701        0.7243449653
 C          0.4519971865       -0.2867124772       -0.3766888160
 C          0.4986211889       -1.2097544800       -1.4165376754
 C          1.4676399829       -1.1110057661       -2.3980790414
 C          2.4250940794       -0.1125818188       -2.3467956653
 C          2.3956048589        0.8056605785       -1.3052268129
 C          1.4035720000        0.7221585080       -0.3375943245
 H          1.3903551094        1.4523921117        0.4571841443
 N          3.3718164483        1.8174409625       -1.1966421368
 S          4.3370264610        1.7922604117        0.1738429170
 O          3.5297371556        2.0198699386        1.3436205376
 O          5.3874891073        2.7509406593       -0.0840321411
 C          5.0121462329        0.1404134434        0.1946196370
 C          6.2516967205       -0.0800250135       -0.3737688023
 C          6.7427188218       -1.3742811856       -0.4322962798
 C          5.9830853548       -2.4228858716        0.0640579809
 C          4.7392569387       -2.1852768715        0.6285018437
 C          4.2451622449       -0.8921571163        0.6975346440
 H          3.2827620978       -0.6757333000        1.1316187740
 H          4.1459685181       -3.0001284370        1.0113573236
 H          6.3616670750       -3.4315301462        0.0120842084
 H          7.7111703360       -1.5616321539       -0.8674134063
 H          6.8078177802        0.7653039883       -0.7458956549
 H          3.9575494647        1.9035627160       -2.0160151921
 H          3.1878168878       -0.0432025608       -3.1077545134
 H          1.4856955793       -1.8278372474       -3.2048144248
 H         -0.2318113357       -2.0032172901       -1.4472308994
 H         -0.5354838925        0.5632996782        1.2899398295
 C         -0.2135740715       -1.5123764140        1.6642149372
 C          0.8657077732       -1.2934813200        2.6803689544
 C         -0.5647427311       -1.4026846192        3.1158307050
 H         -0.8813069122       -2.2931282064        3.6376877001
 H         -1.0681247615       -0.5038282454        3.4417370703
 H          1.5330649178       -2.1104707208        2.9090442471
 H          1.3320012696       -0.3189961185        2.7197707994
 H         -0.2883646344       -2.4894726824        1.2047233914
