  62
        -98.92980197
 C         -1.1935216992       -1.3503304506        0.8206757206
 C         -2.0026899897       -1.2535916513       -0.3363740291
 C         -3.1061383305       -0.2673186823       -0.2888356687
 C         -3.2416020108        0.5285523776        0.7866718813
 C         -4.2928790516        1.5553796567        1.1577593817
 C         -5.3939587823        1.9335711258        0.1714497621
 C         -4.9241623134        2.7949180762       -1.0026061580
 H         -5.7327983638        2.8582132455       -1.7334279578
 H         -4.7330206742        3.8052407263       -0.6320397481
 C         -3.6527040133        2.3169092673       -1.6983258285
 H         -3.3742233842        3.0660710275       -2.4443893786
 H         -2.8414712930        2.2676893080       -0.9714245388
 C         -3.7628409324        0.9713154672       -2.4099675585
 H         -2.8279425124        0.8014753880       -2.9518493488
 H         -4.5688044627        1.0098436465       -3.1458495382
 C         -4.0004114310       -0.2404349130       -1.4967882584
 H         -5.0456148208       -0.3073756039       -1.2045211680
 H         -3.7635648304       -1.1420233728       -2.0695840585
 H         -5.9010875816        1.0393904553       -0.1793267977
 H         -6.1323271226        2.5139654151        0.7310938824
 H         -4.7626319909        1.1655303363        2.0675083919
 H         -3.7545222423        2.4595346872        1.4599475915
 O         -2.3589388004        0.4763691684        1.8289381110
 C         -1.3389167496       -0.4498618508        1.8789919206
 O         -0.6340144993       -0.3755194502        2.9065045304
 H          2.0637175408       -1.0280574478        1.6321301794
 C          2.1077345107       -1.3407551578        0.5964132194
 C          1.0608523212       -2.0931191287        0.0723272898
 C          1.1219920810       -2.4436641086       -1.2716289403
 C          2.2077317504       -2.0765907677       -2.0495088806
 C          3.2482960199       -1.3356147968       -1.5187625610
 C          3.1840235201       -0.9531698868       -0.1862527410
 N          4.2036635796       -0.1258289360        0.3452836187
 S          4.1404543280        1.4534770340       -0.2157366513
 O          4.4268955075        1.4511983142       -1.6267304614
 O          5.0416651677        2.2099042248        0.6222312684
 C          2.4538769177        1.9613283525        0.0697302693
 C          2.1459438075        2.6397669723        1.2316486694
 C          0.8238472673        2.9622689311        1.4896217799
 C         -0.1644679627        2.5832906103        0.5951963502
 C          0.1581984875        1.8894991805       -0.5602090699
 C          1.4802758377        1.5783195117       -0.8311758804
 H          1.7641114278        1.0490357419       -1.7260862205
 H         -0.6132059125        1.5770252199       -1.2469583596
 H         -1.1942211828        2.8261437094        0.8062576906
 H          0.5639208772        3.4949193209        2.3902282300
 H          2.9441244275        2.9109379429        1.9042458091
 H          4.2031483199       -0.1067936760        1.3565045387
 H          4.0858297295       -1.0190200761       -2.1186754313
 H          2.2371280303       -2.3660006476       -3.0891890807
 H          0.3017499613       -2.9708839893       -1.7256240200
 C         -0.0921463682       -2.3905307697        0.9975935202
 H          0.2836527020       -2.1971301494        2.0139680500
 C         -0.6248355770       -3.8177250701        1.0537988604
 C         -1.1358885767       -4.6404356106       -0.0888858495
 C          0.1630855239       -4.9970912695        0.5653441301
 H          0.2031821748       -5.8813264594        1.1838421801
 H          1.0745130735       -4.7969472987        0.0230229997
 H         -1.9948792061       -5.2670277813        0.1073901308
 H         -1.1405615474       -4.2175825106       -1.0779862495
 H         -1.1631774665       -3.9640605206        1.9877206006
 O         -1.8521040495       -1.9563244912       -1.3651284192
