  62
        -98.93621797
 C          0.8787515589        1.6310335424        0.6408081067
 C          1.3947061098        1.3497375187       -0.6457765464
 C          2.6089145191        0.5087459895       -0.6937188055
 C          3.1151236424        0.0186469465        0.4501450070
 C          4.3625896755       -0.8027696826        0.6343276541
 C          4.0594298893       -2.3091244961        0.6317657042
 C          4.0437062325       -2.9543255200       -0.7528012494
 H          5.0637912250       -2.9949642431       -1.1404011112
 H          3.7019251141       -3.9846110083       -0.6335930832
 C          3.1552652560       -2.2513197867       -1.7820137122
 H          2.2140699871       -1.9551199357       -1.3152614552
 H          2.9154330338       -2.9695772091       -2.5677572620
 C          3.8312109739       -1.0274065667       -2.4182558765
 H          4.8874295718       -1.0192632853       -2.1499750467
 H          3.7905527869       -1.1145528265       -3.5061043556
 C          3.1997533342        0.3248889316       -2.0653048659
 H          3.9380403555        1.1173107744       -2.2327682708
 H          2.3705987658        0.5293605161       -2.7506175549
 H          3.0935382486       -2.4515773535        1.1195312519
 H          4.8137051014       -2.8177149498        1.2357670683
 H          5.0999556105       -0.5482894003       -0.1215506758
 H          4.7616897192       -0.5316557101        1.6144664475
 O          2.5042425824        0.2063191246        1.6549768047
 C          1.3891770576        1.0121433446        1.7837230425
 O          0.9473633718        1.0948155938        2.9477819343
 H         -1.5419500423        0.2783559202        0.5154631556
 C         -1.9325344735        1.0183934111       -0.1672940976
 C         -1.3853418166        2.2956794593       -0.1597304993
 C         -1.8879712533        3.2400650711       -1.0445071628
 C         -2.9147532045        2.9063078389       -1.9103072714
 C         -3.4693018302        1.6403149401       -1.9008347724
 C         -2.9693771101        0.6850118156       -1.0218242152
 N         -3.4928419348       -0.6144298648       -1.0054128824
 S         -3.5014792991       -1.5396675701        0.3821509328
 O         -4.5089829682       -2.5480197527        0.1294390093
 O         -3.6935328628       -0.7360244848        1.5665006072
 C         -1.9069412165       -2.3290729529        0.4009393491
 C         -1.0594365980       -2.1611829388        1.4769682004
 C          0.1574683902       -2.8244958000        1.4818463458
 C          0.5014965131       -3.6421198152        0.4168811012
 C         -0.3576421495       -3.7944607681       -0.6610464874
 C         -1.5746331968       -3.1340583652       -0.6710449136
 H         -2.2756895494       -3.2360053223       -1.4825319508
 H         -0.0808083226       -4.4266347709       -1.4890989495
 H          1.4436392576       -4.1666403483        0.4282565129
 H          0.8259375593       -2.6929773513        2.3190424772
 H         -1.3566491079       -1.5158188866        2.2900603066
 H         -4.3068574129       -0.7634644112       -1.5824110139
 H         -4.2757669645        1.3857970581       -2.5715514741
 H         -3.2934675968        3.6464595307       -2.5989853265
 H         -1.4635409272        4.2299573053       -1.0733056425
 C         -0.2925494838        2.5751656602        0.8424794491
 H         -0.6939967871        2.3230480319        1.8390739887
 C          0.1097777909        4.0425824255        0.8973490401
 C          1.4703806839        4.4555486146        1.3718508043
 C          1.0895361607        4.6417497530       -0.0646559317
 H          0.9102430920        5.6461458203       -0.4195066422
 H          1.5262204001        3.9888682875       -0.8034090894
 H          2.1735841053        3.6736302137        1.6201651243
 H          1.5488254859        5.3278585833        2.0033084929
 H         -0.7158749940        4.6746584367        1.2102205657
 O          0.8917337987        1.7887635447       -1.7119278353
