  62
        -98.93968532
 C         -1.6452169193       -1.4147629909        0.2353914404
 C         -1.4302350496       -0.1580781013       -0.3854739905
 C         -2.6370894997        0.5260088281       -0.8827965311
 C         -3.8429561196       -0.0441687021       -0.7165681508
 C         -5.1493286197        0.5681934872       -1.1292994713
 C         -5.7575351900        1.3983004779        0.0095652780
 C         -4.7767767403        2.3803908286        0.6507490674
 H         -5.3240305106        2.9323082490        1.4180875770
 H         -3.9891061402        1.8198269091        1.1598920879
 C         -4.1361313505        3.3710792881       -0.3313916832
 H         -4.7223111404        3.4137308073       -1.2502140633
 H         -4.1573111808        4.3683441984        0.1132112161
 C         -2.6763233904        3.0695882882       -0.6764221928
 H         -2.2634546106        3.9388834880       -1.1959314834
 H         -2.0983457205        2.9383606790        0.2426544473
 C         -2.4407206000        1.8470023076       -1.5719303520
 H         -1.3931568800        1.8689875277       -1.8867336019
 H         -3.0699480399        1.9161013269       -2.4618896721
 H         -6.6174617601        1.9445464274       -0.3821585224
 H         -6.1128871999        0.7153560483        0.7846396685
 H         -5.8397049395       -0.2360748731       -1.3890914208
 H         -4.9904411598        1.1948327367       -2.0046916018
 O         -4.0125010393       -1.2401323817       -0.0977664200
 C         -2.9292556592       -1.9418116611        0.4048027306
 O         -3.2358558089       -3.0083277408        0.9743302214
 O         -0.3026475997        0.3748357689       -0.5376882407
 C         -0.5074237991       -2.2387859802        0.8165113811
 C          0.3444688205       -1.3825340693        1.7194352206
 C         -0.1082207296       -1.1047313785        3.0058430203
 C          0.6441390301       -0.3308645877        3.8688242899
 C          1.8572731500        0.1915683623        3.4569793696
 C          2.3102478802       -0.0639256785        2.1690184398
 C          1.5606684504       -0.8565328893        1.3104424303
 H          1.9180216006       -1.0442534399        0.3119362605
 N          3.5461976601        0.4489840815        1.7208436196
 S          3.4971193299        1.5651648906        0.4597771788
 O          4.8093974797        2.1834130710        0.4896902485
 O          2.3853699696        2.4769355405        0.6016792781
 C          3.3720595403        0.5945142196       -1.0224563505
 C          2.3954908303        0.8829439687       -1.9520478808
 C          2.3580311906        0.1479137478       -3.1268525803
 C          3.2916141709       -0.8524312021       -3.3474362795
 C          4.2680868909       -1.1275145912       -2.4009375492
 C          4.3140052006       -0.3952816203       -1.2263402897
 H          5.0577654205       -0.5720087196       -0.4671489995
 H          4.9905483511       -1.9085338511       -2.5764878186
 H          3.2559054511       -1.4222040227       -4.2630069891
 H          1.5964246806        0.3555997071       -3.8616869805
 H          1.6742828901        1.6508669086       -1.7269704314
 H          4.1077434599        0.8389461122        2.4667042894
 H          2.4484128097        0.8005359529        4.1253500492
 H          0.2836068699       -0.1292653071        4.8664676997
 H         -1.0616082396       -1.5064806886        3.3220887605
 H         -1.0050131890       -2.9933026299        1.4469495616
 C          0.3117147212       -3.0096870807       -0.2081212583
 C         -0.3643002785       -3.6826267717       -1.3649072379
 C          0.5594476912       -2.5281009916       -1.6038980786
 H          1.5261311313       -2.7266334716       -2.0429578584
 H          0.1393616610       -1.5794769019       -1.8957396393
 H         -0.0403453882       -4.6726976218       -1.6476141272
 H         -1.4266838386       -3.5206952020       -1.4785852881
 H          1.1205102913       -3.5591058901        0.2642346122
