  62
        -98.94172081
 C          1.1079793223        1.6398808546        0.3347594328
 C          1.8336646736        0.7416845122        1.1584593144
 C          2.9775254615        0.0643470449        0.5336115648
 C          3.2390163023        0.2851024483       -0.7673275395
 C          4.3477410306       -0.3640326407       -1.5431957261
 C          3.8783460152       -1.6649649562       -2.2085360961
 C          3.1433726742       -2.6118979250       -1.2601110426
 H          2.8932706437       -3.5092130148       -1.8294002097
 H          2.2019896286       -2.1497766184       -0.9544210255
 C          3.9440377251       -3.0050134933       -0.0107492109
 H          5.0031041569       -2.7975103317       -0.1680251403
 H          3.8478408341       -4.0814699852        0.1449149980
 C          3.4806007473       -2.3237474376        1.2781622714
 H          3.9525937849       -2.8339098650        2.1220329051
 H          2.3997805382       -2.4363575120        1.3846234754
 C          3.8143597445       -0.8322797267        1.4024634695
 H          4.8770423073       -0.6725150473        1.2071202818
 H          3.6061400330       -0.5301740906        2.4331581388
 H          4.7499458545       -2.1695985616       -2.6295147984
 H          3.2036430569       -1.4096824584       -3.0287508018
 H          4.6771808217        0.3315981811       -2.3169656976
 H          5.1810813430       -0.5662862923       -0.8728872491
 O          2.4838718129        1.1025526589       -1.5422500643
 C          1.4013442333        1.8014141647       -1.0205054770
 O          0.8114565672        2.5064100973       -1.8587281875
 H         -1.4140853603        0.1873743403        0.3856960072
 C         -1.8518311050        1.0501576266       -0.0977510434
 C         -1.2750588989        2.3009138187        0.0886019597
 C         -1.8440373643        3.3979523858       -0.5445030369
 C         -2.9594996280        3.2404304336       -1.3472417844
 C         -3.5397105332        1.9973011618       -1.5172289942
 C         -2.9792723122        0.8922559397       -0.8867422176
 N         -3.5350548197       -0.3868930785       -1.0473883528
 S         -3.6379472585       -1.4119613699        0.2703752711
 O         -4.7113408521       -2.3247613777       -0.0641861713
 O         -3.7928333273       -0.6794045726        1.5053290705
 C         -2.1114088279       -2.3252252945        0.2703853132
 C         -1.4388076445       -2.5231776530        1.4593488766
 C         -0.2968688531       -3.3085159650        1.4616465494
 C          0.1513372109       -3.8769546389        0.2795059813
 C         -0.5299785392       -3.6595880010       -0.9087892826
 C         -1.6757813792       -2.8811475592       -0.9163254861
 H         -2.2363513408       -2.6981214414       -1.8179289036
 H         -0.1726328794       -4.0973702074       -1.8269448806
 H          1.0383142651       -4.4904547997        0.2843150690
 H          0.2353444558       -3.4711621120        2.3856779838
 H         -1.8156977760       -2.0562081431        2.3557503013
 H         -4.3753598575       -0.4152121333       -1.6067025847
 H         -4.4147964252        1.8770346250       -2.1380441167
 H         -3.3866009142        4.0989514819       -1.8431551924
 H         -1.3978940170        4.3719289340       -0.4299530668
 C         -0.0523908621        2.3885960990        0.9655765643
 H         -0.2670837915        1.8300945278        1.8925655198
 C          0.2805754614        3.8118304549        1.3890772478
 C          1.6628582453        4.1772992450        1.8385487525
 C          1.1219910418        4.7297560192        0.5557480870
 H          0.8561187897        5.7763136500        0.5220431833
 H          1.5093042739        4.3483535711       -0.3757908690
 H          2.4238435945        3.4123500329        1.7855182007
 H          1.7694515695        4.8415210296        2.6830066229
 H         -0.5381519974        4.2678256267        1.9380342962
 O          1.5419901338        0.5218075355        2.3646139367
