  62
        -98.93873914
 C         -2.5291793683       -1.3438275270        0.1411495545
 C         -2.5995708397       -0.3521072766       -0.8642531090
 C         -3.4874579597        0.7963381727       -0.5991208439
 C         -4.1698573209        0.8617152600        0.5585632985
 C         -5.1607065951        1.8819287615        1.0788865088
 C         -5.2786468722        3.2594517986        0.4317239930
 C         -4.0496364306        4.1531996703        0.5964901815
 H         -4.2074972582        5.0622501485        0.0121471715
 H         -3.9678463793        4.4429727863        1.6470335941
 C         -2.7171772695        3.5282021932        0.1893853151
 H         -2.4933586675        2.6785976247        0.8385489051
 H         -1.9310877893        4.2697073159        0.3582322554
 C         -2.6211288890        3.0773143374       -1.2669976505
 H         -1.5786253692        2.8013323488       -1.4537023752
 H         -2.8682272309        3.9111137572       -1.9272912782
 C         -3.4989105650        1.8719415900       -1.6468987606
 H         -4.5170184965        2.1794622735       -1.8719709694
 H         -3.0822049189        1.4249835708       -2.5541303091
 H         -5.5399548012        3.1624741165       -0.6178653816
 H         -6.1175362419        3.7611868509        0.9215359804
 H         -6.1408757357        1.3944602493        1.0339734487
 H         -4.9264573274        2.0051736942        2.1409732233
 O         -4.0788347505       -0.1253133319        1.4965691410
 C         -3.2613925123       -1.2249325217        1.3256940347
 O         -3.2762808588       -2.0236419525        2.2831519430
 O         -1.9670275403       -0.3985158909       -1.9542229339
 C         -1.6374920964       -2.5741313661        0.0436096241
 C         -0.2108991234       -2.1819896789        0.3464317226
 C          0.3742210869       -2.5180628785        1.5620982659
 C          1.6615433200       -2.1081639137        1.8617504569
 C          2.3876773153       -1.3488828354        0.9612762157
 C          1.8066300823       -0.9976227754       -0.2497505015
 C          0.5239685889       -1.4265269075       -0.5561595534
 H          0.0714899908       -1.1296822157       -1.4903426389
 N          2.5264391057       -0.2025749634       -1.1636244183
 S          3.0905566856        1.2729714651       -0.5865610300
 O          2.2756607261        1.7650000475        0.5011563503
 O          3.1971842546        2.1267370992       -1.7498423876
 C          4.7285084916        0.8902437310       -0.0013412656
 C          5.0769775796        1.1630911279        1.3067740399
 C          6.3598844676        0.8590966510        1.7356816665
 C          7.2663947436        0.2917936890        0.8532954131
 C          6.9013574707        0.0263227456       -0.4583155882
 C          5.6210103000        0.3284642928       -0.8934394061
 H          5.2972497019        0.1422281847       -1.9037569036
 H          7.6092093088       -0.4146562052       -1.1415023643
 H          8.2633591874        0.0552187326        1.1900328351
 H          6.6453656146        1.0650366039        2.7548079319
 H          4.3363043003        1.5994568673        1.9580413767
 H          2.0276932135       -0.0611163490       -2.0315694037
 H          3.3866876240       -1.0169772671        1.1931244351
 H          2.1024830725       -2.3776515381        2.8094204679
 H         -0.1982195120       -3.0865940274        2.2810209181
 H         -1.9769455809       -3.2466149442        0.8424087891
 C         -1.7664159679       -3.3004103659       -1.2802566882
 C         -1.3295876093       -4.7307179111       -1.3667015952
 C         -2.7874166178       -4.3874414529       -1.4196725180
 H         -3.3091817701       -4.4854269003       -2.3598046467
 H         -3.3975327324       -4.6134791745       -0.5570926902
 H         -0.8476308196       -5.0680250440       -2.2713536125
 H         -0.9509067689       -5.1919146100       -0.4671459483
 H         -1.5993005670       -2.6680052787       -2.1416759893
