  62
        -98.92745576
 C          2.4925190333        0.7615526620        0.4781638644
 C          2.7469670521       -0.6328300580        0.5293635733
 C          4.0035307826       -1.0988313884       -0.0729339485
 C          4.8223142918       -0.1989372389       -0.6468439075
 C          6.1725010128       -0.4963475487       -1.2348805997
 C          7.2107974082       -0.6729428136       -0.1085197424
 C          7.7911960915       -2.0832464443       -0.0017835574
 H          8.5119495416       -2.2322843811       -0.8085242503
 H          8.3368001068       -2.1417239645        0.9424577390
 C          6.7762188445       -3.2286840980       -0.0630449948
 H          6.4929833307       -3.4131019086       -1.1003778151
 H          7.2901739917       -4.1277574863        0.2836722684
 C          5.5002462643       -3.0392977418        0.7674048161
 H          5.6747440134       -2.3429572949        1.5878671367
 H          5.2412706104       -4.0005591002        1.2159312713
 C          4.2725762283       -2.5779889888       -0.0400131304
 H          4.3442545868       -2.9582379770       -1.0629135262
 H          3.3751028374       -3.0134132452        0.4093218974
 H          8.0351882910        0.0252703520       -0.2609885432
 H          6.7388995635       -0.3995794196        0.8375881136
 H          6.1162645252       -1.3927808143       -1.8485332795
 H          6.4419971931        0.3464983874       -1.8716366351
 O          4.5402310762        1.1273412676       -0.6903421102
 C          3.3719684302        1.6480807812       -0.1436714210
 O          3.2638980415        2.8794418020       -0.2825144795
 H         -1.1615809221       -0.0776085263        1.2403317205
 C         -1.0670676841        0.4779217640        0.3170810558
 C          0.0868939146        1.2095324390        0.0810921574
 C          0.2056947501        1.9017805565       -1.1203207054
 C         -0.8138590785        1.8609275188       -2.0536362341
 C         -1.9609411228        1.1226378726       -1.8186563192
 C         -2.0855198892        0.4199678399       -0.6278580850
 N         -3.2244054136       -0.3700683419       -0.3931227964
 S         -4.7356987540        0.2498972883       -0.8208885776
 O         -4.8944083478        0.1294670699       -2.2482273737
 O         -4.8990194691        1.5800695595       -0.2773844601
 C         -5.8099690847       -0.9051098239        0.0061262780
 C         -5.9848906435       -2.1557481577       -0.5558126721
 C         -6.7978053816       -3.0721790951        0.0915636598
 C         -7.4184720300       -2.7248565929        1.2826180047
 C         -7.2341804218       -1.4655983505        1.8331484823
 C         -6.4208313221       -0.5443334892        1.1917318602
 H         -6.2542569942        0.4479318884        1.5793964203
 H         -7.7200668868       -1.1983045637        2.7577236328
 H         -8.0517381973       -3.4396953114        1.7838821434
 H         -6.9451115553       -4.0518461591       -0.3336610275
 H         -5.4894621868       -2.3783589545       -1.4863653507
 H         -3.2400908273       -0.7460830507        0.5452284158
 H         -2.7586105505        1.0836540900       -2.5426185677
 H         -0.7137371727        2.4074440147       -2.9797838186
 H          1.1035755438        2.4703849330       -1.3117261197
 C          1.1921995820        1.2313413970        1.1063500579
 H          0.9551927708        0.4622177253        1.8585965164
 C          1.3130747644        2.5578026798        1.8421617356
 C          0.6406713893        3.8214126103        1.4060369318
 C          0.1414554477        3.0904630049        2.6137479306
 H          0.3122990721        3.5179391135        3.5900372213
 H         -0.7954354453        2.5615053077        2.5189610493
 H          1.1824182164        4.7451190765        1.5404882013
 H          0.0350420479        3.8012710112        0.5138083211
 H          2.2888076923        2.6751002834        2.3023496238
 O          1.9530463483       -1.4522744927        1.0662702293
