  62
        -98.93606917
 C          1.3007495407        1.6284437494        0.1537973908
 C          2.4342448103        1.2607008686        0.9194179411
 C          3.2504219497        0.1550880581        0.3937904613
 C          2.8611443896       -0.4625595316       -0.7361480089
 C          3.5399927190       -1.6496814320       -1.3596384788
 C          3.1928311479       -2.9345574318       -0.5809271689
 C          4.3831643873       -3.5865896226        0.1229963114
 H          3.9871545366       -4.3475892324        0.7990486112
 H          4.9999081371       -4.0960715830       -0.6203412785
 C          5.2905766077       -2.6400272933        0.9144050117
 H          5.9128687871       -3.2622080937        1.5611804318
 H          5.9694029082       -2.1257150637        0.2324259519
 C          4.5762447381       -1.5923691829        1.7780534516
 H          5.1272542079       -1.4927523733        2.7156399717
 H          3.5710733878       -1.9264704622        2.0367983212
 C          4.5035261592       -0.1873494428        1.1515686116
 H          4.5549671695        0.5539437271        1.9548913117
 H          5.3730316195       -0.0313567033        0.5065100519
 H          2.7625347476       -3.6705883315       -1.2622488791
 H          2.4230565778       -2.6930376813        0.1553110009
 H          4.6162162791       -1.4909526927       -1.3715121584
 H          3.1877524692       -1.7209592617       -2.3887193589
 O          1.7401070600       -0.1145669408       -1.4166100892
 C          0.9302627706        0.9354556497       -1.0008952593
 O         -0.0558002291        1.1307394204       -1.7304184496
 O          2.7485852603        1.8301507283        1.9999574012
 C          0.4299722313        2.7587221100        0.6745197806
 C         -1.0178247589        2.3390169309        0.6300963002
 C         -2.0079937383        3.0310505016       -0.0527897801
 C         -3.3073053286        2.5530250225       -0.0780236705
 C         -3.6469963396        1.3805957727        0.5705579894
 C         -2.6629117502        0.6809086620        1.2573047496
 C         -1.3668204299        1.1670581111        1.2913230900
 H         -0.6004794004        0.6155268906        1.8233625302
 N         -2.9910358512       -0.5292779178        1.9050044194
 S         -3.6321384117       -1.7374232274        0.9340196392
 O         -4.9967491214       -1.4048115464        0.6118217088
 O         -3.4362319828       -2.9620016975        1.6784689691
 C         -2.6334022213       -1.7394781379       -0.5411539606
 C         -1.4092656718       -2.3761958787       -0.5008930702
 C         -0.6012579814       -2.3456273192       -1.6247483500
 C         -1.0225919006       -1.6692508188       -2.7583091001
 C         -2.2516340302       -1.0310172180       -2.7809291804
 C         -3.0679632605       -1.0639824976       -1.6627362106
 H         -4.0313927302       -0.5817487569       -1.6418076309
 H         -2.5695034296       -0.4967786478       -3.6613579705
 H         -0.3827855404       -1.6307361392       -3.6254707099
 H          0.3598016683       -2.8341893298       -1.6095374798
 H         -1.1169643224       -2.8941742490        0.3995640498
 H         -2.2245859416       -0.9071055784        2.4441190596
 H         -4.6500083698        0.9860959633        0.5460117590
 H         -4.0654956581        3.0986317830       -0.6189297707
 H         -1.7593743375        3.9315635115       -0.5893394699
 H          0.7206981111        2.8630022797        1.7336748307
 C          0.6925467924        4.1076503798        0.0226960008
 C          2.0309586028        4.4311116690       -0.5692713088
 C          0.8380501429        4.2671256898       -1.4599766192
 H          0.4217823537        5.1499349701       -1.9229465392
 H          0.7640417225        3.3788455899       -2.0668449692
 H          2.4318501034        5.4223352287       -0.4186814886
 H          2.7807423423        3.6532603285       -0.5684534886
 H          0.1976815328        4.9155560401        0.5531193407
