  62
        -98.93636961
 C          2.4072136147        0.8916130436        0.2199251627
 C          3.7076899137        0.9983872155        0.7771754148
 C          4.8204402706        0.5548822618       -0.0720461780
 C          4.5554776137        0.0638228920       -1.2960043395
 C          5.5844726911       -0.4785763554       -2.2441795108
 C          5.7770784108       -1.9888804406       -2.0483923098
 C          5.9834463767       -2.4012940226       -0.5908653764
 H          5.0663219124       -2.2026793853       -0.0312012545
 H          6.1383594122       -3.4823695415       -0.5776366982
 C          7.1627596848       -1.7071142079        0.1049566304
 H          7.7278613508       -2.4550775587        0.6651364684
 H          7.8364233501       -1.2843896907       -0.6412813763
 C          6.7605424702       -0.6166123277        1.0996825802
 H          7.6434172524       -0.3491936722        1.6864600920
 H          6.0142846279       -1.0110753112        1.7941286646
 C          6.2105062014        0.6771083605        0.4859662822
 H          6.1493250079        1.4225697739        1.2843129830
 H          6.9005907591        1.0453086867       -0.2759567009
 H          6.6347949697       -2.3077394233       -2.6434013031
 H          4.8903103058       -2.5027915474       -2.4266479733
 H          6.5268857012        0.0422739091       -2.0861894520
 H          5.2436103317       -0.2942687950       -3.2643445341
 O          3.2977903476       -0.0407740264       -1.7913238548
 C          2.1893031528        0.3538634295       -1.0499480859
 O          1.1075856216        0.1755857335       -1.6380622314
 O          3.9273485183        1.4428971864        1.9357803889
 C          1.2395546343        1.3208547904        1.0913894057
 C          0.1881675987        0.2406504164        1.1111754233
 C          0.4727009191       -0.9563774394        1.7625527977
 C         -0.4515774295       -1.9828404696        1.7919017975
 C         -1.6786868249       -1.8400505612        1.1687273934
 C         -1.9718434400       -0.6517406215        0.5141866009
 C         -1.0461905134        0.3848850049        0.4992404357
 H         -1.2779839881        1.2968399038       -0.0287857090
 N         -3.2041670139       -0.5100046481       -0.1484588298
 S         -4.5897921215       -1.0400350927        0.6550576088
 O         -4.5883155349       -0.5564953346        2.0184972488
 O         -4.6971914208       -2.4689946833        0.4980736218
 C         -5.8638537517       -0.2304332451       -0.2915437714
 C         -6.2895047083       -0.8144962226       -1.4694265883
 C         -7.2613228941       -0.1735441222       -2.2211344191
 C         -7.7877628377        1.0335101818       -1.7855068428
 C         -7.3513849831        1.6066837361       -0.6005176849
 C         -6.3786370207        0.9716893067        0.1554936215
 H         -6.0167471901        1.3753855514        1.0875614749
 H         -7.7647912503        2.5435559279       -0.2632585004
 H         -8.5450079787        1.5295347469       -2.3718932743
 H         -7.6052925504       -0.6169320121       -3.1416199470
 H         -5.8587476067       -1.7573361253       -1.7634836113
 H         -3.3293047971        0.4189544327       -0.5262517400
 H         -2.4101683589       -2.6320150753        1.1817462006
 H         -0.2164011785       -2.9053636447        2.3019066521
 H          1.4350021276       -1.0738050807        2.2429698897
 H          1.6705693584        1.3884909810        2.1042418471
 C          0.6832462047        2.7001296392        0.7724254002
 C          1.5847845709        3.7929238863        0.2831110814
 C          0.5398069191        3.2212240670       -0.6250691358
 H         -0.3224342653        3.8302232108       -0.8558267107
 H          0.8517026115        2.5818071083       -1.4355132436
 H          1.4427773404        4.7901540939        0.6715219148
 H          2.6181738090        3.5390683781        0.0968743665
 H         -0.0865348068        2.9926334270        1.4808990903
