  62
        -98.93974465
 C         -2.2135914708       -1.2935110887       -0.0666112294
 C         -2.9643421906       -0.4825795083        0.8133300205
 C         -3.5641624103        0.7357983617        0.2438586402
 C         -3.3380359004        1.0395442613       -1.0482570899
 C         -3.8387565102        2.1842712313       -1.9043218001
 C         -4.4763339798        3.4162802316       -1.2676045304
 C         -3.5201371096        4.2759050215       -0.4413002606
 H         -2.8076630395        4.7538205312       -1.1184503308
 H         -4.1003785494        5.0643846918        0.0429497092
 C         -2.7123820997        3.5325770916        0.6200390095
 H         -2.0454823499        2.8124815013        0.1387958696
 H         -2.0733979395        4.2619691616        1.1264789693
 C         -3.5390410198        2.8170716920        1.6872071097
 H         -4.2289749796        3.5244067923        2.1514347096
 H         -2.8468393798        2.4699369421        2.4596282997
 C         -4.3395557601        1.5970334221        1.1991778200
 H         -5.2890514600        1.8963507722        0.7624112700
 H         -4.5598200302        0.9699607924        2.0681496502
 H         -5.3404329899        3.1304556019       -0.6751604603
 H         -4.8460442597        4.0344583914       -2.0901160005
 H         -2.9806519301        2.4969016709       -2.5082004903
 H         -4.5604530703        1.7411590213       -2.5995808000
 O         -2.5814870406        0.2381686610       -1.8535427597
 C         -1.9871655608       -0.9241468291       -1.3915498495
 O         -1.3073032710       -1.5257646794       -2.2432794194
 O         -3.1305680706       -0.7638183980        2.0325929005
 C         -1.5508723411       -2.5499710087        0.4720577309
 C         -0.0552082811       -2.3552531891        0.4342213807
 C          0.8256120187       -3.2094065794       -0.2144299391
 C          2.1810345888       -2.9266694497       -0.2452205293
 C          2.6852732191       -1.7930237197        0.3656692704
 C          1.8124009693       -0.9366598294        1.0242524402
 C          0.4601404493       -1.2263635990        1.0614835404
 H         -0.2179597206       -0.5512544888        1.5705498603
 N          2.3212582296        0.2416755207        1.6283177799
 S          2.6456446698        1.4660643203        0.5124040096
 O          2.7314711502        2.6829038005        1.2911853693
 O          1.6811577798        1.4658655803       -0.5662106403
 C          4.2585110197        1.0348038498       -0.0996037104
 C          5.3378931898        1.1713376498        0.7516874395
 C          6.5968490297        0.8133032794        0.2967399395
 C          6.7527704695        0.3280362590       -0.9934142904
 C          5.6588490794        0.1997297491       -1.8359896503
 C          4.3962883095        0.5554726695       -1.3871967803
 H          3.5148329794        0.4662248595       -2.0023998802
 H          5.7814278092       -0.1782596912       -2.8381995602
 H          7.7330287094        0.0478124487       -1.3453741704
 H          7.4501469697        0.9119816693        0.9479917794
 H          5.1689843599        1.5576692900        1.7428722594
 H          1.6903125798        0.6168078110        2.3246974799
 H          3.7391386491       -1.5688212100        0.3423547203
 H          2.8532974086       -3.5973120900       -0.7579234392
 H          0.4491033285       -4.0901801995       -0.7077448389
 H         -1.8607261810       -2.6144252184        1.5256550509
 C         -2.0334794614       -3.7839332288       -0.2575270188
 C         -1.9668196317       -5.1226990386        0.4130391715
 C         -3.2913953016       -4.4541347784        0.2047036614
 H         -3.9632559617       -4.8558324284       -0.5387169884
 H         -3.7935906514       -4.0310569180        1.0625109314
 H         -1.7311518519       -5.9885338288       -0.1866947683
 H         -1.5700273416       -5.1586026685        1.4162541215
 H         -1.8581166215       -3.7335218191       -1.3258077888
