  62
        -98.93907877
 C         -2.3060957981       -0.8697739480        0.6452676651
 C         -3.4065075745       -0.9270505522       -0.2451832400
 C         -4.5054762598        0.0120706542        0.0302839820
 C         -4.4234025497        0.8415678698        1.0852444473
 C         -5.4425862037        1.8835402230        1.4426558655
 C         -5.1152869819        3.2309637317        0.7838849658
 C         -4.8160394370        3.1310903719       -0.7119897001
 H         -4.6312576596        4.1447445337       -1.0742490734
 H         -3.8912697357        2.5665159310       -0.8533728074
 C         -5.9353523760        2.4873672197       -1.5421945768
 H         -6.8692454675        2.5027850846       -0.9792683089
 H         -6.0897857658        3.0844646575       -2.4433334321
 C         -5.6431468661        1.0572143758       -1.9998491354
 H         -6.3876748363        0.7823213500       -2.7516418735
 H         -4.6623874914        1.0194323304       -2.4805990112
 C         -5.6831654262       -0.0146566612       -0.9034751119
 H         -6.6183005450        0.0633127553       -0.3456178259
 H         -5.6544107399       -0.9921976303       -1.3932301035
 H         -4.2391171757        3.6546979998        1.2803350116
 H         -5.9571937343        3.9068583223        0.9445235653
 H         -6.4274228654        1.5432263503        1.1287415791
 H         -5.4393420439        2.0088896499        2.5267232859
 O         -3.3621275131        0.8534255314        1.9325282987
 C         -2.2830882065        0.0116131468        1.7305562227
 O         -1.3792006408        0.1319582481        2.5834667987
 H          1.2336751430       -0.3949068819        0.7713047542
 C          0.9872015597       -0.5588315126       -0.2684172295
 C         -0.1793922024       -1.2308445697       -0.6062489731
 C         -0.4865464684       -1.4045374915       -1.9519734433
 C          0.3657109280       -0.9257260356       -2.9300609706
 C          1.5432977694       -0.2840651647       -2.5902064963
 C          1.8516442319       -0.0916455333       -1.2483341647
 N          3.0243715094        0.5832693773       -0.8736552976
 S          3.8145841212        0.1041998141        0.5388768685
 O          3.8301693731       -1.3383741276        0.6325904603
 O          3.2436534933        0.8136703561        1.6562566312
 C          5.4577417722        0.7168555362        0.2148040722
 C          5.7247949930        2.0544122159        0.4389663514
 C          6.9927674733        2.5397289106        0.1610902865
 C          7.9668321667        1.6848838234       -0.3335517107
 C          7.6846759414        0.3446997633       -0.5511460141
 C          6.4181018670       -0.1470518986       -0.2767368278
 H          6.1548621634       -1.1824390238       -0.4218702612
 H          8.4448993819       -0.3179471575       -0.9321546401
 H          8.9530831760        2.0652301517       -0.5476229534
 H          7.2166997964        3.5802773001        0.3324582020
 H          4.9389614579        2.6772288617        0.8339719340
 H          3.6676070976        0.7134375346       -1.6425727147
 H          2.2145662305        0.0751016678       -3.3555677230
 H          0.1157986110       -1.0654998626       -3.9709954739
 H         -1.4072125548       -1.8970475342       -2.2215842864
 C         -1.0760964574       -1.7514971757        0.4924527991
 H         -0.5239304276       -1.6527719468        1.4376175146
 C         -1.4132680525       -3.2160560471        0.2897711009
 C         -0.3405249349       -4.2365471804        0.5176757203
 C         -1.4837612214       -4.1216995765        1.4801010690
 H         -2.2302658759       -4.9016877241        1.4903339142
 H         -1.2918166559       -3.6877343509        2.4511218519
 H         -0.3005304524       -5.0970216457       -0.1323796571
 H          0.6287778234       -3.8780804716        0.8334154812
 H         -2.1187905737       -3.3930746041       -0.5107184155
 O         -3.4932332477       -1.7157235222       -1.2223488922
