  62
        -98.93809626
 C         -2.2836136213       -1.0516034913       -0.3413929587
 C         -3.6746932927       -1.1407723776       -0.0692807410
 C         -4.4996332100       -0.0125317156       -0.5123904338
 C         -3.9199652466        1.0353599025       -1.1244328740
 C         -4.6252201184        2.2560946584       -1.6500706001
 C         -4.8822584633        3.3333657876       -0.5874632078
 C         -5.9762216964        2.9985485152        0.4272768673
 H         -6.2012985004        3.9186086157        0.9703103453
 H         -6.8827185699        2.7026343504       -0.1016653342
 C         -5.5899720697        1.9108847960        1.4394789238
 H         -4.5044429277        1.7848969045        1.4427481860
 H         -5.8761190944        2.2302592541        2.4441997858
 C         -6.2462875465        0.5525066224        1.1919027109
 H         -7.3275412241        0.6394708792        1.3193929856
 H         -5.8739446255       -0.1495927555        1.9422605012
 C         -5.9640258632       -0.0422525972       -0.1938773778
 H         -6.2830887928       -1.0873588854       -0.1892332703
 H         -6.5297243784        0.4936203470       -0.9557322982
 H         -3.9461284599        3.5352875114       -0.0612500773
 H         -5.1712110741        4.2466038226       -1.1128538215
 H         -3.9787545552        2.6810147761       -2.4209703559
 H         -5.5698498568        1.9640498089       -2.1097836945
 O         -2.5834490823        1.0927381082       -1.3570581450
 C         -1.7271715407        0.0705732288       -0.9588331410
 O         -0.5327102690        0.2957701750       -1.2292026666
 H          1.1893976520       -1.7485093743       -0.5683987989
 C          0.9910042658       -1.4727678716        0.4555325623
 C         -0.2796906191       -1.6509061940        0.9770984026
 C         -0.5258893213       -1.2538678995        2.2880599986
 C          0.4783256292       -0.6955449816        3.0564243033
 C          1.7456779669       -0.5141509755        2.5310305295
 C          1.9963640206       -0.8943496630        1.2198678555
 N          3.2798916858       -0.7123854273        0.6708665350
 S          4.0849558132        0.7252697329        1.0427538009
 O          4.7262766246        0.5633781994        2.3252112216
 O          3.1942411185        1.8578250983        0.9270974962
 C          5.3157920797        0.7622509965       -0.2451670746
 C          4.9904556900        1.3401680721       -1.4579397169
 C          5.9354985587        1.3465189288       -2.4716853089
 C          7.1809929836        0.7747369312       -2.2576951360
 C          7.4917999959        0.1974688964       -1.0356746325
 C          6.5518979970        0.1886049228       -0.0171266864
 H          6.7493037408       -0.2409089451        0.9510420147
 H          8.4617024615       -0.2441369357       -0.8733786444
 H          7.9138972782        0.7819838215       -3.0489240585
 H          5.6964308568        1.7962137777       -3.4220371919
 H          4.0121219487        1.7790565777       -1.5781245247
 H          3.2782081919       -0.8673017920       -0.3284992860
 H          2.5347428684       -0.0634058511        3.1115123731
 H          0.2738176760       -0.3913510922        4.0722522265
 H         -1.5205981751       -1.3767710157        2.6947171716
 C         -1.4119710410       -2.1968804969        0.1464738620
 H         -2.0744899570       -2.7733276176        0.8122662840
 C         -0.9485028394       -3.1599159049       -0.9359590893
 C         -1.8743160991       -3.5513087497       -2.0479007760
 C         -0.6486989962       -2.7423671874       -2.3430952093
 H          0.1719291315       -3.2274955453       -2.8517496871
 H         -0.7660068403       -1.7016946898       -2.6003248313
 H         -1.9002472864       -4.5842523586       -2.3602717013
 H         -2.8336446756       -3.0561783083       -2.0897054240
 H         -0.3270388558       -3.9496589529       -0.5242331996
 O         -4.2033371065       -2.1224465707        0.5164727891
