  62
        -98.94510078
 C         -1.4813569136       -0.6478640950       -0.5019080261
 C         -2.6704585088       -1.1138919494        0.1185902379
 C         -3.5811070578       -0.0926618403        0.6488916414
 C         -3.2381891528        1.2041235361        0.5476804861
 C         -4.0855669122        2.3547280140        1.0069410911
 C         -5.0044775176        2.8547784907       -0.1165955985
 C         -5.7829431059        1.7421798771       -0.8187526604
 H         -5.0796149408        1.0969948170       -1.3500103909
 H         -6.4179950999        2.2147551630       -1.5711311069
 C         -6.6480887455        0.8855607339        0.1161177476
 H         -7.6292389966        0.7476677111       -0.3430058906
 H         -6.8029989725        1.4086820704        1.0604504814
 C         -6.0876261033       -0.5099319283        0.3966318856
 H         -5.8432191264       -1.0030348701       -0.5474819557
 H         -6.8704592788       -1.0996671115        0.8809635754
 C         -4.8504561259       -0.5630919986        1.3019568783
 H         -4.6784577007       -1.6098892075        1.5692462895
 H         -5.0410309030       -0.0021940740        2.2194951899
 H         -4.3917792555        3.3674881120       -0.8616675000
 H         -5.7025471199        3.5796257912        0.3062344122
 H         -4.6789495744        2.0408664188        1.8638186407
 H         -3.4234701751        3.1663865357        1.3140932896
 O         -2.0873302330        1.6159289531       -0.0369255118
 C         -1.1791574016        0.7123510845       -0.5749439191
 O         -0.1859739889        1.2622221132       -1.0872950245
 H          1.4600385212       -0.1987654466       -0.0029142571
 C          1.4265453170       -1.1744138434        0.4511406890
 C          0.4566514270       -2.0831699521        0.0486170010
 C          0.3977444266       -3.3243122970        0.6710372777
 C          1.2853203605       -3.6442499539        1.6828981573
 C          2.2430726271       -2.7343759168        2.0890724223
 C          2.3126792626       -1.4884322660        1.4712969335
 N          3.2980186102       -0.5753224203        1.8555544239
 S          3.2138230421        1.0710034675        1.5864095154
 O          4.2010751867        1.6119477077        2.4995272317
 O          1.8714712908        1.5789203676        1.7386020000
 C          3.8275405065        1.2437465905       -0.0755687267
 C          5.1456325586        0.8871321757       -0.2904682270
 C          5.6697896660        0.9874372445       -1.5679017619
 C          4.8699348195        1.4414652686       -2.6064196075
 C          3.5519068899        1.7993977765       -2.3727649316
 C          3.0200018953        1.7035413102       -1.0948069356
 H          1.9912820700        1.9596593928       -0.8915663314
 H          2.9250290444        2.1507553690       -3.1770747397
 H          5.2750576950        1.5175361977       -3.6032962775
 H          6.6955685723        0.7111889036       -1.7515659064
 H          5.7333872490        0.5486519372        0.5465224199
 H          3.8250484131       -0.8162721430        2.6805166515
 H          2.9317994426       -2.9789817896        2.8832562629
 H          1.2267348007       -4.6086718402        2.1644024949
 H         -0.3657254534       -4.0277708206        0.3732448798
 C         -0.5385551141       -1.7188664558       -1.0285841537
 H         -1.1737868248       -2.5989680590       -1.2004680983
 C          0.1548332848       -1.3691864962       -2.3285925011
 C          0.6930890954       -2.4784016792       -3.1803304543
 C         -0.5101883511       -1.7053128214       -3.6282097940
 H         -0.4074426903       -1.0147337591       -4.4515513132
 H         -1.4740777300       -2.1916857871       -3.5859348543
 H          0.5443084396       -3.4906782429       -2.8360696427
 H          1.6271927908       -2.3212183658       -3.6968538461
 H          0.7203593663       -0.4483791568       -2.2872983384
 O         -2.9598392133       -2.3370497920        0.2164525155
