  62
        -98.93649285
 C         -2.5819911005       -1.0620205841        0.1334599978
 C         -3.1474087545       -0.3450534369        1.2178457607
 C         -4.5415156242        0.0801720630        1.0594729608
 C         -5.2111050425       -0.2408974666       -0.0623049892
 C         -6.6454222548        0.0980681699       -0.3658291605
 C         -6.8470221298        1.5069477210       -0.9403923224
 C         -6.6706703017        2.6497875418        0.0603181264
 H         -7.0517323266        3.5549647131       -0.4166984341
 H         -7.2878831685        2.4604607318        0.9390706584
 C         -5.2181216931        2.8948880956        0.4924965116
 H         -4.5399967264        2.4105165458       -0.2141859344
 H         -5.0024978939        3.9652357239        0.4572012868
 C         -4.8863685284        2.4128461372        1.9048303284
 H         -5.4626539219        2.9880327277        2.6329624272
 H         -3.8255579540        2.6011402129        2.0899936826
 C         -5.1510084123        0.9201579035        2.1409142098
 H         -4.6834064776        0.6346735730        3.0864460080
 H         -6.2226343763        0.7341006848        2.2096857754
 H         -7.8637509541        1.5541133475       -1.3372497812
 H         -6.1575764827        1.6455268500       -1.7765213357
 H         -7.2476839675       -0.0178469228        0.5357096370
 H         -6.9854361708       -0.6278578326       -1.1075805739
 O         -4.6442974915       -0.9524275422       -1.0713095677
 C         -3.3177662420       -1.3658397339       -1.0136144850
 O         -2.9407705229       -1.9780933217       -2.0301577441
 O         -2.5145044605       -0.0819379740        2.2768277461
 C         -1.1431511235       -1.5083982295        0.2745841570
 C         -0.1556158035       -0.6771132077       -0.5161844428
 C         -0.5374186845        0.2089288705       -1.5138559172
 C          0.4119364546        0.9385948322       -2.2094267096
 C          1.7575343997        0.8038856536       -1.9253234963
 C          2.1529191248       -0.0710922772       -0.9211821013
 C          1.1977854938       -0.7991938488       -0.2249646918
 H          1.5108994454       -1.4746889993        0.5575293247
 N          3.5187588723       -0.2267693021       -0.6304417965
 S          4.4809564349        1.1633739506       -0.6077935465
 O          3.8163919585        2.2138455161        0.1300335441
 O          4.8525401154        1.4826545682       -1.9633163463
 C          5.9025589229        0.5703147978        0.2878992221
 C          5.9832236611        0.7940247615        1.6493832524
 C          7.0778509427        0.3049447550        2.3448186928
 C          8.0654155971       -0.3981401595        1.6712323807
 C          7.9702284585       -0.6143103473        0.3044096415
 C          6.8792456255       -0.1270652460       -0.3975243364
 H          6.7671293968       -0.2630155753       -1.4604400957
 H          8.7416883411       -1.1592333626       -0.2152746961
 H          8.9160847091       -0.7774011442        2.2151299699
 H          7.1560553413        0.4738988924        3.4067775218
 H          5.1963414859        1.3529312706        2.1303968563
 H          3.6738586261       -0.7941598494        0.1919022814
 H          2.5031001059        1.3719403180       -2.4579020622
 H          0.0964249490        1.6219531572       -2.9839266152
 H         -1.5840565997        0.3245116358       -1.7526153688
 H         -0.9079350347       -1.3681322795        1.3401855664
 C         -0.9663094540       -2.9788801349       -0.0669163705
 C         -0.0782654662       -3.8547229810        0.7628914029
 C         -1.5663075659       -4.0152746190        0.8338734581
 H         -2.0225425673       -4.8847351598        0.3856611164
 H         -2.0744004333       -3.6648372415        1.7208808867
 H          0.4989469776       -4.6190244668        0.2656501911
 H          0.4117710778       -3.4155083381        1.6189304803
 H         -1.0114369304       -3.1689009185       -1.1323504223
