  62
        -98.94032251
 C         -1.4277661700       -1.1751938807        0.0623547795
 C         -2.3804707500       -0.7958652015        1.0330116399
 C         -3.0473992202        0.5025439785        0.8290293708
 C         -2.7075987204        1.2606583793       -0.2303453387
 C         -3.1740738306        2.6384152595       -0.6534311078
 C         -4.4593069907        3.2378111689       -0.0873426672
 C         -5.7398114306        2.5028444190       -0.4802950076
 H         -6.5752524706        2.9738832286        0.0424965128
 H         -5.9028388807        2.6340266897       -1.5529475375
 C         -5.7555596604        1.0038402588       -0.1906811086
 H         -6.7312542803        0.6154160789       -0.4950106787
 H         -5.0052706404        0.5027176093       -0.8056227990
 C         -5.5377091001        0.6168021579        1.2711700512
 H         -6.2508639202        1.1493346074        1.9033751316
 H         -5.7456720900       -0.4528016922        1.3613816305
 C         -4.1190858801        0.8584976177        1.8182630612
 H         -3.9731277099        0.2006263972        2.6802383307
 H         -3.9970656202        1.8817677275        2.1665894018
 H         -4.3915727606        3.3275156882        0.9929766628
 H         -4.5278837808        4.2544266292       -0.4843876066
 H         -2.3484404807        3.3206146894       -0.4205350174
 H         -3.2491356408        2.6028594202       -1.7447174278
 O         -1.7558480304        0.8641992400       -1.1250977591
 C         -1.1049851503       -0.3556406500       -1.0185580500
 O         -0.2827721703       -0.5813313293       -1.9225895502
 O         -2.6545407998       -1.5025586922        2.0416504994
 C         -0.6916358798       -2.4938807907        0.2125033186
 C          0.7944555201       -2.2377635806        0.2669379886
 C          1.7260726001       -2.9511722600       -0.4747274820
 C          3.0721043801       -2.6329900398       -0.4047000319
 C          3.5178866401       -1.6025207703        0.4014749487
 C          2.5944815900       -0.8903760009        1.1564239093
 C          1.2499402601       -1.2157467211        1.0913734792
 H          0.5339162801       -0.6542244115        1.6793973296
 N          3.0343600600        0.1766211086        1.9658429699
 S          3.9327432097        1.3608153392        1.1886568706
 O          5.2976665198        0.9138669695        1.0660877301
 O          3.7305299297        2.5629526187        1.9673055414
 C          3.1975752895        1.5247355602       -0.4271788992
 C          3.8801947395        1.0844474510       -1.5418226796
 C          3.2679980593        1.1803981218       -2.7810276595
 C          1.9918438292        1.7099369917       -2.8825170590
 C          1.3199882093        2.1507929408       -1.7533802986
 C          1.9248571795        2.0535276901       -0.5120092387
 H          1.4293498895        2.3857450294        0.3874855915
 H          0.3205862292        2.5469767107       -1.8364675282
 H          1.5091178591        1.7730842522       -3.8445845789
 H          3.7845719393        0.8356185124       -3.6622896397
 H          4.8712898095        0.6795044511       -1.4184377000
 H          2.2904179400        0.6028570082        2.4997738503
 H          4.5598707900       -1.3322773202        0.4577353187
 H          3.7835069201       -3.1920779393       -0.9928625724
 H          1.3984002802       -3.7507691096       -1.1181903825
 H         -1.0096314597       -2.9024180914        1.1833111083
 C         -1.1018566998       -3.4577994801       -0.8806466720
 C         -1.0660147596       -4.9364622802       -0.6386896830
 C         -2.3807564897       -4.2231743504       -0.7274553724
 H         -2.9969635798       -4.3791484499       -1.6002114224
 H         -2.9441396196       -4.0700239710        0.1815823578
 H         -0.7814859296       -5.5859145297       -1.4527349535
 H         -0.7395693294       -5.2771059308        0.3322684967
 H         -0.8526519200       -3.0924758894       -1.8705517918
