  62
        -98.93647823
 C         -0.9024869315       -1.2651190465       -0.8074315162
 C         -1.9636479915       -1.5905334109        0.0733978111
 C         -2.9162145968       -0.5176699277        0.3898484011
 C         -2.7078950282        0.7084625711       -0.1217661150
 C         -3.6119649546        1.8954312319        0.0580572732
 C         -4.8488688527        1.7624907282       -0.8533224458
 C         -6.1713078603        1.6025555244       -0.1033121816
 H         -6.9273239511        1.3046142687       -0.8328337719
 H         -6.4685314453        2.5715556572        0.3031634640
 C         -6.1663143119        0.5938142935        1.0491188231
 H         -7.2096564500        0.3988739879        1.3062217142
 H         -5.7078878372        1.0450864251        1.9305046117
 C         -5.4701398853       -0.7437105916        0.7663187307
 H         -5.4521105804       -0.9498110549       -0.3040274555
 H         -6.0565654501       -1.5374148241        1.2336342182
 C         -4.0408420697       -0.8541799356        1.3295221538
 H         -3.8581103049       -1.8932170489        1.6203692228
 H         -3.9534419502       -0.2434998950        2.2332524931
 H         -4.6965484756        0.9048356452       -1.5117247039
 H         -4.9244192053        2.6422085465       -1.4941289233
 H         -3.9080191630        1.9737903849        1.1020778596
 H         -3.0381877993        2.7841004864       -0.2064322004
 O         -1.6689167975        0.9929234277       -0.9445210380
 C         -0.7324944131        0.0274139364       -1.3045530269
 O          0.1576520388        0.4588657979       -2.0572920274
 H          1.4369119588       -0.2595244575       -0.0740157848
 C          1.7207449745       -1.1800985723        0.4102443918
 C          1.1482320782       -2.3755125833       -0.0003087784
 C          1.5343752342       -3.5517714084        0.6306476765
 C          2.4616867067       -3.5243076573        1.6579254231
 C          3.0007743507       -2.3257309085        2.0897528433
 C          2.6199336938       -1.1438638698        1.4639022936
 N          3.1364027064        0.0957491084        1.8659885071
 S          2.1646042023        1.4588672760        1.7812777988
 O          2.7779993786        2.3859555245        2.7124776325
 O          0.7764903317        1.1472170231        2.0387917607
 C          2.3880234450        2.0881332242        0.1333248490
 C          3.6034958112        1.9166354858       -0.4983714682
 C          3.7784299542        2.4524331763       -1.7634297390
 C          2.7456790115        3.1525843852       -2.3676513107
 C          1.5348727789        3.3216236248       -1.7167522894
 C          1.3519119204        2.7846708519       -0.4532059133
 H          0.4165039069        2.8731603354        0.0775943762
 H          0.7263940623        3.8546959548       -2.1905693337
 H          2.8818773941        3.5641007531       -3.3553714452
 H          4.7170705278        2.3176549387       -2.2766741404
 H          4.3819978498        1.3612977147       -0.0019300082
 H          3.6993668598        0.0809380780        2.7039365924
 H          3.7032494225       -2.3006832443        2.9086979063
 H          2.7532310445       -4.4438772338        2.1421843292
 H          1.0867547807       -4.4869114289        0.3279254815
 C          0.1038568795       -2.3680926437       -1.0883680756
 H         -0.4657975066       -3.3075128691       -1.0022574503
 C          0.7014536397       -2.3215842485       -2.4859941096
 C          2.0959936571       -1.8586615215       -2.7682331209
 C          1.7553227428       -3.3122374011       -2.8851210581
 H          1.7010265506       -3.7554889102       -3.8677932043
 H          2.1298163046       -3.9750406658       -2.1198016880
 H          2.7029946310       -1.5390022282       -1.9358810027
 H          2.2569856487       -1.2833142733       -3.6664767171
 H         -0.0451929495       -2.0755751054       -3.2338567786
 O         -2.1096386768       -2.7416969114        0.5700374825
