  62
        -98.94399554
 C         -2.0312823932       -0.7996073891        0.1412885448
 C         -1.6896661731       -1.8129084103       -0.7836656334
 C         -0.6984266021       -2.8086391278       -0.3372278858
 C         -0.1949145952       -2.7135715605        0.9055311562
 C          0.8746203806       -3.5596560639        1.5394715044
 C          2.2628952915       -2.9348630940        1.3156418884
 C          2.9671581026       -3.3715862018        0.0325740654
 H          3.8820053930       -2.7802408026       -0.0529335206
 H          3.2586962997       -4.4208171701        0.1209517239
 C          2.1569918162       -3.1975531412       -1.2543833717
 H          1.6746213831       -2.2173936742       -1.2645329754
 H          2.8586998018       -3.2053107494       -2.0916715576
 C          1.1172631562       -4.3077574755       -1.4694624544
 H          1.3157602208       -5.1245446088       -0.7755068955
 H          1.2333885540       -4.7200920539       -2.4743643569
 C         -0.3460844611       -3.8659197869       -1.3475191287
 H         -0.6768904161       -3.4530489701       -2.3062076356
 H         -0.9692255742       -4.7474817266       -1.1578845840
 H          2.1511690091       -1.8473053294        1.3138396690
 H          2.9054932574       -3.1972441767        2.1585590680
 H          0.6654467614       -3.5693834033        2.6111224411
 H          0.8364160828       -4.5787728884        1.1670477750
 O         -0.5794663859       -1.7418586063        1.7782642824
 C         -1.4764400937       -0.7489241032        1.4188159985
 O         -1.6888734156        0.0951583789        2.3093804990
 H         -0.6700171431        0.7577081477       -1.5463096921
 C         -0.9883488427        1.6383008122       -1.0068041567
 C         -2.1869067202        1.6134178685       -0.3023382557
 C         -2.5896010596        2.7632205404        0.3633677297
 C         -1.7946949036        3.8967254215        0.3411481614
 C         -0.5848042547        3.9037732802       -0.3279762979
 C         -0.1771298702        2.7615447948       -1.0093088820
 N          1.0413003552        2.7387614691       -1.7132378525
 S          2.1233636224        1.4807289087       -1.5065069101
 O          3.3056747405        1.8997406485       -2.2266474988
 O          1.5267673551        0.2379314293       -1.9192707616
 C          2.4705901424        1.4480934538        0.2402610346
 C          1.5523482132        0.8509997625        1.0789149568
 C          1.7762219506        0.8649643597        2.4460836065
 C          2.9183337828        1.4694071374        2.9483214504
 C          3.8358936109        2.0621414093        2.0929854568
 C          3.6098880064        2.0596103606        0.7258769899
 H          4.2959479977        2.5063338337        0.0245479743
 H          4.7238448420        2.5283791582        2.4885822910
 H          3.0920179570        1.4760745760        4.0127624046
 H          1.0467906043        0.4068844763        3.0963067356
 H          0.6748286692        0.3863077922        0.6576727390
 H          1.5362811578        3.6194063762       -1.7054148818
 H          0.0397961259        4.7841589933       -0.3293859315
 H         -2.1165436589        4.7835762845        0.8653748814
 H         -3.5203489691        2.7703787418        0.9058522264
 C         -2.9631014726        0.3177769010       -0.2953494282
 H         -3.2390655170        0.0791107947       -1.3332674111
 C         -4.2175305158        0.3538861796        0.5496176964
 C         -5.4820125115        0.9315478488       -0.0103169624
 C         -5.3586336478       -0.5481548392        0.1904859504
 H         -5.9201439196       -1.0111048613        0.9879828503
 H         -5.2397057404       -1.1765847064       -0.6803281600
 H         -6.1336887754        1.4840857091        0.6493889717
 H         -5.4538107311        1.3090316013       -1.0213551720
 H         -4.0086299545        0.4982494313        1.6032235340
 O         -2.1866743168       -1.8772916453       -1.9416692397
