  62
        -98.93319120
 C          2.0273184219        1.4879913800        0.3373087106
 C          1.6791090756        0.3258541775       -0.3897049157
 C          2.7778673204       -0.6123427588       -0.6962908822
 C          4.0266739369       -0.3369484109       -0.2782277856
 C          5.3348839681       -1.0729425530       -0.4806359559
 C          5.3519409055       -2.5102532485       -0.9944367094
 C          4.7747952932       -3.5432808457       -0.0262558101
 H          4.7251422081       -4.5046287157       -0.5419628008
 H          5.4647940741       -3.6523014972        0.8142692905
 C          3.3996489525       -3.2151577172        0.5499381973
 H          3.1260403903       -4.0195195581        1.2380138718
 H          3.4588985523       -2.2964626439        1.1370642003
 C          2.2741490381       -3.0781076858       -0.4732753853
 H          1.3378728283       -2.9756095743        0.0818525396
 H          2.2107174748       -3.9855372784       -1.0769142180
 C          2.3806733120       -1.8686477177       -1.4166194415
 H          1.3890643137       -1.6817607597       -1.8401609774
 H          3.0546981307       -2.0702186841       -2.2454782729
 H          6.4013478117       -2.7671100176       -1.1629520740
 H          4.8568003357       -2.5702864352       -1.9592759128
 H          5.9193676197       -0.4527790094       -1.1694635372
 H          5.8521166971       -1.0309306065        0.4832424586
 O          4.3116206027        0.7960123025        0.4300119429
 C          3.3347799708        1.7122185857        0.7729133484
 O          3.7457618922        2.6656853013        1.4627479819
 O          0.5106347375        0.0635272278       -0.7751498300
 C          0.9921510178        2.5268181319        0.7345053555
 C         -0.2757218350        1.8398771316        1.1781735157
 C         -0.2173675797        0.9717742292        2.2658465181
 C         -1.3363134557        0.2800710743        2.6869073698
 C         -2.5442183021        0.4408104140        2.0301901172
 C         -2.6157230547        1.3118866560        0.9529673184
 C         -1.4934343693        2.0135682141        0.5380877649
 H         -1.5705520516        2.6576018679       -0.3244727216
 N         -3.8584635258        1.4366165396        0.2705482045
 S         -4.0127775701        0.3480873299       -1.0165439984
 O         -3.0701873528        0.6631675432       -2.0687156829
 O         -5.4046319404        0.4133677344       -1.4113349736
 C         -3.6576110623       -1.2329948112       -0.2892027429
 C         -4.7078208204       -1.9666662777        0.2275810274
 C         -4.4429909803       -3.1929942475        0.8150230309
 C         -3.1381032494       -3.6586005655        0.8762095565
 C         -2.0971384392       -2.9072075249        0.3529460876
 C         -2.3512174766       -1.6784784727       -0.2369221639
 H         -1.5586125584       -1.0671462812       -0.6412415325
 H         -1.0818136036       -3.2678966962        0.4028920564
 H         -2.9291907935       -4.6128404203        1.3338752080
 H         -5.2505236843       -3.7796703607        1.2225062437
 H         -5.7041818583       -1.5630136040        0.1507819845
 H         -3.9864514963        2.3624001716       -0.1195488328
 H         -3.4256152161       -0.0967721553        2.3399413383
 H         -1.2677046799       -0.3938307766        3.5270546636
 H          0.7315671408        0.8338931979        2.7670478151
 H          1.4242573890        3.0426213594        1.6081795062
 C          0.7554245439        3.5928322163       -0.3256915309
 C          1.8332398581        3.9807347671       -1.2921443772
 C          0.6187416300        3.2513409254       -1.7781996877
 H         -0.1050249532        3.7930045260       -2.3706377082
 H          0.7132695081        2.2138665902       -2.0590201179
 H          1.9422797644        5.0249650334       -1.5437571637
 H          2.7696828890        3.4445990453       -1.2435169058
 H          0.1340767223        4.4028909405        0.0453449757
