  62
        -98.94330086
 C          2.5088118031        1.0658949436       -0.1478137789
 C          3.6472714678        0.8711009059        0.6713471056
 C          4.6666823556       -0.0414987030        0.1429951008
 C          4.4868463593       -0.6182614584       -1.0593776525
 C          5.4451658534       -1.5558169218       -1.7425510426
 C          5.3117735704       -3.0183845404       -1.2964785490
 C          5.8404565105       -3.3217948202        0.1059881291
 H          5.8851308321       -4.4083628757        0.2030812028
 H          6.8595002853       -2.9448499500        0.1985955624
 C          4.9762169204       -2.7604770176        1.2437435092
 H          3.9863314137       -2.5058097919        0.8577927370
 H          4.8335868091       -3.5295628348        2.0062450653
 C          5.5659234160       -1.5350265927        1.9420773828
 H          4.8570550924       -1.2003446713        2.7038070201
 H          6.4947089418       -1.8115501566        2.4459991722
 C          5.8509852383       -0.3514844002        1.0080806812
 H          6.7272968898       -0.5590351040        0.3944844555
 H          6.0537060435        0.5292070470        1.6224976070
 H          4.2603860641       -3.3080783562       -1.3602633975
 H          5.8687815162       -3.6287032237       -2.0110821316
 H          5.2250727401       -1.5005027924       -2.8107949556
 H          6.4685770895       -1.2164162559       -1.5805635170
 O          3.3856853545       -0.3917826546       -1.8235741710
 C          2.3612773884        0.4339616276       -1.3824687325
 O          1.4029029556        0.5249568026       -2.1727885420
 O          3.8027046964        1.4326141408        1.7887721695
 C          1.3997073383        1.9760198920        0.3505588310
 C          0.1424773761        1.1639373166        0.5396112424
 C          0.1543062140        0.1316388101        1.4751536276
 C         -0.9620600306       -0.6565380297        1.6728362692
 C         -2.1157285792       -0.4374377749        0.9390859440
 C         -2.1415531598        0.5920836577        0.0096520541
 C         -1.0189697059        1.3904497989       -0.1797487511
 H         -1.0547739804        2.1832486651       -0.9103955530
 N         -3.3002095677        0.8103000425       -0.7508107436
 S         -4.7964378611        0.8155046238        0.0017526329
 O         -5.6517622045        1.5926319859       -0.8683248689
 O         -4.6998045469        1.2636761562        1.3716985768
 C         -5.3113888081       -0.8881682841       -0.0495143043
 C         -5.6970094012       -1.5265213812        1.1129234062
 C         -6.1023816178       -2.8505757410        1.0479892115
 C         -6.1164526609       -3.5086965985       -0.1721688217
 C         -5.7297253204       -2.8521516790       -1.3311586637
 C         -5.3238303812       -1.5285457204       -1.2730377553
 H         -5.0173361018       -0.9840884956       -2.1506739486
 H         -5.7412244946       -3.3673430183       -2.2782103940
 H         -6.4306255284       -4.5393755573       -0.2205940109
 H         -6.4040176541       -3.3624679934        1.9477347973
 H         -5.6647372155       -0.9766168029        2.0401141434
 H         -3.2192613756        1.5584121170       -1.4232281670
 H         -2.9888572757       -1.0521074306        1.0841152053
 H         -0.9359380838       -1.4527719095        2.4013547898
 H          1.0575242706       -0.0432423854        2.0438946956
 H          1.7316260277        2.3230798935        1.3398070147
 C          1.2345976011        3.1775224446       -0.5545928095
 C          0.5760427501        4.4189672890       -0.0332838558
 C          2.0522536848        4.4047294934       -0.2907444846
 H          2.4346106055        4.9599821625       -1.1340777809
 H          2.7205051520        4.3847504619        0.5575632629
 H         -0.0552861671        4.9888102551       -0.6985143106
 H          0.2387917142        4.4112439376        0.9923355436
 H          1.0678147842        2.9056155470       -1.5907605744
