  62
        -98.93100999
 C         -2.3742951480       -1.1206355813       -0.1769147827
 C         -2.5077255262        0.1951358042        0.3255127860
 C         -3.8821757279        0.6485554921        0.6225788694
 C         -4.9167440932       -0.1907972270        0.4359269391
 C         -6.4010282238       -0.0194913207        0.6841791054
 C         -7.0004503250        1.3647248380        0.9181131893
 C         -6.9593388288        2.2933325595       -0.2949847081
 H         -7.6493398007        1.9090982990       -1.0504414972
 H         -7.3198914270        3.2764242939        0.0153018985
 C         -5.5935138681        2.4524912296       -0.9583424795
 H         -5.2682448124        1.4925296564       -1.3647678913
 H         -5.7099548111        3.1354540088       -1.8042926143
 C         -4.4909432699        3.0102089482       -0.0601761061
 H         -3.6258777062        3.2226483279       -0.6945612959
 H         -4.8190454399        3.9526177883        0.3825400675
 C         -4.0186237113        2.0761675076        1.0677305283
 H         -4.6668968573        2.1465058271        1.9377824440
 H         -3.0190402043        2.3965535446        1.3761477310
 H         -8.0510776700        1.2078333973        1.1771596188
 H         -6.5323008482        1.8380421007        1.7760851119
 H         -6.6304922844       -0.6471496206        1.5523763747
 H         -6.8999404804       -0.4853893229       -0.1716094960
 O         -4.7309689302       -1.4708425729       -0.0041011603
 C         -3.4780876623       -1.9633533621       -0.3177563174
 O         -3.4769355966       -3.1516454279       -0.6968360073
 O         -1.5374185465        0.9692717847        0.5298808192
 C         -1.0224685636       -1.7089838167       -0.5391195454
 C         -0.0010929784       -1.3888666262        0.5244554637
 C         -0.2235621418       -1.8458785219        1.8215833936
 C          0.6896665314       -1.5947471033        2.8263104023
 C          1.8580200072       -0.9039818703        2.5552030817
 C          2.0870988290       -0.4401810055        1.2661339277
 C          1.1587055912       -0.6790040798        0.2621287754
 H          1.3559238937       -0.2865142672       -0.7214284132
 N          3.2509968882        0.2822742696        0.9579366757
 S          3.9578441291        0.0395758756       -0.5549347337
 O          3.3550687159        0.9360663833       -1.5089780956
 O          3.9285322089       -1.3657563136       -0.8944036451
 C          5.6326088452        0.5565141093       -0.2216173432
 C          5.9339139501        1.9051016760       -0.2553669238
 C          7.2277567887        2.3095411029        0.0327023188
 C          8.1932395747        1.3649371318        0.3482672291
 C          7.8764885650        0.0151055168        0.3764338103
 C          6.5841039218       -0.3962102348        0.0906801003
 H          6.2939375054       -1.4346200437        0.0913240395
 H          8.6299603136       -0.7169822384        0.6185830683
 H          9.1996621230        1.6826472828        0.5705937267
 H          7.4784139964        3.3578088986        0.0089811542
 H          5.1534948638        2.6013780811       -0.5150195367
 H          3.9340388371        0.2712972976        1.7026912996
 H          2.5777585719       -0.7150587196        3.3372949941
 H          0.4978520477       -1.9500082803        3.8278238015
 H         -1.1317297546       -2.3961463936        2.0303236836
 H         -1.1767745609       -2.8017227985       -0.5306494138
 C         -0.5479991801       -1.3517666756       -1.9399920934
 C         -1.5219212821       -1.0993996727       -3.0507242598
 C         -0.6965764152        0.0263071600       -2.5075921264
 H          0.1095957897        0.4184080202       -3.1112706014
 H         -1.1769070978        0.7697375650       -1.8913808743
 H         -1.2898723340       -1.4840788264       -4.0324493727
 H         -2.5744518714       -1.1262742166       -2.8079633154
 H          0.3571697923       -1.8902830460       -2.2085169017
