  62
        -98.94158527
 C         -0.4815896202       -1.6494816448        0.1665841422
 C         -1.2948266833       -0.7794757476        0.9269470420
 C         -2.3241290874       -0.0429976318        0.1816479839
 C         -2.4009044125       -0.1795751423       -1.1546212017
 C         -3.3265852577        0.5640976855       -2.0821926341
 C         -4.8334526376        0.2829441402       -1.9242549727
 C         -5.5663943426        1.2632181781       -1.0000871533
 H         -5.0078971889        2.1997058165       -0.9704404244
 H         -6.5407987563        1.4934267590       -1.4356496182
 C         -5.8189643382        0.7698893922        0.4276169019
 H         -6.1106745610        1.6312067230        1.0322286381
 H         -6.6603033867        0.0733681139        0.4197769964
 C         -4.6452048819        0.0625611548        1.1047403593
 H         -4.5343307920       -0.9427218591        0.6917619747
 H         -4.8875863643       -0.0626483854        2.1618022383
 C         -3.2924151250        0.7890837081        0.9720977218
 H         -3.4250875739        1.7682659727        0.5131703548
 H         -2.8462498017        0.9215130566        1.9597086828
 H         -5.2729921454        0.3598862811       -2.9200531964
 H         -4.9775961247       -0.7429400161       -1.5864313091
 H         -3.1425033771        1.6359298970       -1.9718587992
 H         -3.0125926556        0.2803315403       -3.0890898518
 O         -1.5821268709       -1.0120938666       -1.8535676120
 C         -0.6061390732       -1.7625512482       -1.2186455528
 O          0.0642813179       -2.4860148132       -1.9804029150
 O         -1.1588312304       -0.6127862493        2.1693897393
 C          0.6289441608       -2.4156544687        0.8628316445
 C          1.9558045232       -1.9934489791        0.2814417924
 C          2.9643100320       -2.8805668687       -0.0698196929
 C          4.1321332529       -2.4148759246       -0.6499455936
 C          4.3098857405       -1.0683656236       -0.9079816517
 C          3.3118977333       -0.1707509141       -0.5440939827
 C          2.1654037253       -0.6354003832        0.0758977703
 H          1.3952151375        0.0665266370        0.3607378716
 N          3.4494143451        1.2051827191       -0.7777341093
 S          2.0998903115        2.1325049399       -1.1255713276
 O          1.0975550649        1.3989846536       -1.8629935816
 O          2.6401571959        3.3036186249       -1.7868721541
 C          1.4808002367        2.6224896849        0.4691524660
 C          2.3785163496        3.0916746157        1.4080022505
 C          1.9005481180        3.5094879355        2.6392201058
 C          0.5405261898        3.4599118128        2.9057826094
 C         -0.3479477927        2.9927934051        1.9502655572
 C          0.1246174565        2.5675767829        0.7189525177
 H         -0.5312041872        2.1763223680       -0.0444943094
 H         -1.4045641267        2.9491880536        2.1585286885
 H          0.1681558825        3.7847243864        3.8644750157
 H          2.5878583716        3.8719917436        3.3865466372
 H          3.4265869803        3.1185092571        1.1611752200
 H          4.2474875226        1.4691926303       -1.3368786878
 H          5.2065410680       -0.7118223186       -1.3915184601
 H          4.9068265870       -3.1144421516       -0.9252675357
 H          2.8311140496       -3.9371892763        0.0948378643
 H          0.5917167227       -2.0954331038        1.9149581609
 C          0.3828512273       -3.9077656588        0.7949354474
 C          0.8949381242       -4.8091491404        1.8775690392
 C         -0.5727048107       -4.5285284737        1.7681329359
 H         -1.2259386202       -5.3140204323        1.4188377310
 H         -1.0266216777       -3.8763622626        2.4998611424
 H          1.2484860175       -5.7921811417        1.6053044439
 H          1.4374987723       -4.3534370083        2.6918023427
 H          0.3731152007       -4.2797665970       -0.2235811296
