  62
        -98.94195717
 C          0.1693858977        1.8741360237        0.6045839465
 C          0.9307765872        1.9827985893       -0.5813634592
 C          2.3071265745        1.4562899554       -0.5293876425
 C          2.7450854939        0.8600438890        0.5950924460
 C          4.0918844374        0.2650300735        0.9498171835
 C          5.1423179039        0.0088115975       -0.1275725827
 C          4.7865295655       -1.0952574471       -1.1232572937
 H          4.8325455432       -2.0563707658       -0.6064851814
 H          5.5462979618       -1.1037886176       -1.9076727667
 C          3.4072405669       -0.9860975076       -1.7680121428
 H          2.6341926721       -1.0540268786       -1.0001604261
 H          3.2788269577       -1.8455235442       -2.4308115421
 C          3.1711627683        0.2743088526       -2.5965800318
 H          2.2138825434        0.1560615555       -3.1116233242
 H          3.9503232138        0.3705029473       -3.3554737048
 C          3.1043706535        1.5849319917       -1.7955855080
 H          2.5852962483        2.3275493478       -2.4086910992
 H          4.0987546766        1.9718929567       -1.5864640346
 H          6.0529189587       -0.2988365647        0.3937943258
 H          5.3779668389        0.9322074830       -0.6484361906
 H          3.8751664649       -0.6723210022        1.4700014732
 H          4.5234031255        0.9397573953        1.6976183142
 O          1.9551908655        0.7453772804        1.7042998473
 C          0.6657079132        1.2421991372        1.7418094057
 O          0.0728541752        1.0569608947        2.8249509233
 O          0.4912188716        2.5058383219       -1.6384217649
 C         -1.2586844917        2.3858294650        0.6380922585
 C         -2.0890048562        1.6253986146       -0.3685694122
 C         -2.9472774162        2.2307005085       -1.2763957838
 C         -3.6777367415        1.4606700022       -2.1654195396
 C         -3.5856247069        0.0813802704       -2.1534743127
 C         -2.7350781411       -0.5353793130       -1.2419101733
 C         -1.9908729578        0.2392352192       -0.3686126440
 H         -1.3284144388       -0.2419270614        0.3362457161
 N         -2.6044676776       -1.9311409936       -1.2025859671
 S         -2.4136086168       -2.7181944054        0.2623167791
 O         -2.8893527792       -4.0621471817        0.0069155619
 O         -3.0679598727       -2.0086660285        1.3360021291
 C         -0.6550537899       -2.7946793204        0.5241477848
 C         -0.0994157920       -2.2536226983        1.6654287860
 C          1.2648553692       -2.3841218098        1.8746334139
 C          2.0436524425       -3.0532780688        0.9442911067
 C          1.4711388787       -3.5889464742       -0.2001277049
 C          0.1092686809       -3.4608075553       -0.4144154016
 H         -0.3754922388       -3.8728980207       -1.2836559058
 H          2.0834456968       -4.1051969019       -0.9216229475
 H          3.1036203619       -3.1616145669        1.1135598184
 H          1.7036048898       -1.9518432351        2.7603526627
 H         -0.7303216898       -1.7299633798        2.3678955418
 H         -3.2178368617       -2.4358383943       -1.8257229802
 H         -4.1627839729       -0.5164505589       -2.8424106808
 H         -4.3354406507        1.9425370530       -2.8729735069
 H         -3.0405893251        3.3040357470       -1.2935275846
 H         -1.6464749226        2.1429173499        1.6392017219
 C         -1.2937710636        3.8878416379        0.4515370629
 C         -2.4085281535        4.6951994232        1.0433896019
 C         -1.0335396374        4.7694056723        1.6344513018
 H         -0.4561541408        5.6701474444        1.4900232589
 H         -0.8567244864        4.2853264276        2.5842999359
 H         -2.7752975249        5.5497309037        0.4949493871
 H         -3.1697362680        4.1662433837        1.5972038174
 H         -0.8851108197        4.1983096508       -0.5028841343
