  62
        -98.93472895
 C         -1.8507836569       -0.8284752534        0.4756026705
 C         -2.2910748892       -0.0224062400       -0.6012816540
 C         -3.4279462827        0.8776581080       -0.3202543211
 C         -3.9374263265        0.9287781712        0.9217303828
 C         -5.1207134723        1.7257851319        1.3962986458
 C         -6.4049834006        0.8819050287        1.3292160375
 C         -7.1295209004        0.9166591478       -0.0158898713
 H         -7.9369352013        0.1823206581        0.0312289052
 H         -7.5877495053        1.8986873043       -0.1506471795
 C         -6.2590663908        0.6122707386       -1.2380000772
 H         -5.6010324765       -0.2309807166       -1.0207165025
 H         -6.9199228049        0.3043616386       -2.0505644975
 C         -5.4286747371        1.8175480545       -1.7041106686
 H         -5.5807736933        1.9685583422       -2.7748413614
 H         -5.7984222373        2.7163323736       -1.2106280983
 C         -3.9127421811        1.6956042802       -1.4860444835
 H         -3.4547808357        1.2268731187       -2.3628985328
 H         -3.4803009318        2.6992070377       -1.4111504223
 H         -6.1419818930       -0.1491743135        1.5795680234
 H         -7.0975071699        1.2365019533        2.0953269864
 H         -4.9262261595        1.9812639396        2.4401655600
 H         -5.2222313387        2.6433412057        0.8243423399
 O         -3.4388912905        0.1838734886        1.9470840535
 C         -2.3930554611       -0.7000928372        1.7561701948
 O         -2.0301062917       -1.2959355188        2.7905235919
 O         -1.7775806996       -0.0453765629       -1.7489624076
 C         -0.7030969723       -1.8123245453        0.3215700205
 C          0.4398033225       -1.1552675081       -0.4131841672
 C          0.9752691586       -1.6336381222       -1.6008687096
 C          2.0168333463       -0.9631655490       -2.2190940663
 C          2.5505275715        0.1861935321       -1.6672931552
 C          2.0315797359        0.6650281927       -0.4704435203
 C          0.9933808704       -0.0113603507        0.1504521738
 H          0.5836579966        0.3672721711        1.0795596435
 N          2.5722756914        1.8259567197        0.1061126970
 S          4.2330857339        2.0173256889        0.1092503278
 O          4.5127253176        2.8588869302        1.2519959934
 O          4.6678292175        2.5276450534       -1.1671966461
 C          4.8996010729        0.3813260195        0.3616212178
 C          4.5409043939       -0.2981930029        1.5089546795
 C          5.0276917967       -1.5795650947        1.7089410228
 C          5.8612814421       -2.1567866759        0.7630487672
 C          6.2169568388       -1.4594246104       -0.3806761657
 C          5.7313986866       -0.1779658290       -0.5866833372
 H          5.9802746285        0.3987841046       -1.4625294279
 H          6.8667435267       -1.9096768005       -1.1135213972
 H          6.2354398806       -3.1559631018        0.9206429837
 H          4.7520448018       -2.1229942055        2.5984917002
 H          3.8948187654        0.1795467522        2.2281293365
 H          2.1659348944        2.0769583836        0.9945964833
 H          3.3443859287        0.7313879558       -2.1514336612
 H          2.4133938731       -1.3368268434       -3.1506768649
 H          0.5575850139       -2.5138071955       -2.0605009564
 H         -0.3655279440       -2.0122447780        1.3521736906
 C         -1.1086406694       -3.1561009198       -0.2654817079
 C         -2.4975699954       -3.6890987856       -0.0815189071
 C         -2.0276437584       -3.2760815095       -1.4423211184
 H         -1.8291386553       -4.0495177026       -2.1699437887
 H         -2.4147821833       -2.3650098230       -1.8694691880
 H         -2.6201556113       -4.7414971684        0.1263012351
 H         -3.2122296543       -3.0589963391        0.4284039842
 H         -0.3058084280       -3.8836663066       -0.1984298932
