  62
        -98.93928037
 C         -2.4593281577       -1.0475165250        0.3655727494
 C         -2.5844441068        0.1200419758        1.1625614919
 C         -3.7530797600        0.9653366935        0.8968363369
 C         -4.6428177709        0.5948397376       -0.0417683492
 C         -5.9045528752        1.3285385854       -0.4077826601
 C         -5.6966152152        2.4695242442       -1.4127949975
 C         -5.0005078245        3.7101344542       -0.8520605646
 H         -5.1148751310        4.5043448474       -1.5923494712
 H         -5.5119981688        4.0339508862        0.0548226135
 C         -3.5051898245        3.5191833748       -0.5611630995
 H         -3.1417274879        2.6296326364       -1.0813441650
 H         -2.9449181697        4.3699696980       -0.9553966556
 C         -3.1575350567        3.3983984272        0.9228236275
 H         -2.0809751821        3.2272993935        1.0102468637
 H         -3.3913863327        4.3360174872        1.4322370736
 C         -3.8785411350        2.2554200856        1.6495023085
 H         -4.9280686379        2.5078535765        1.8001208862
 H         -3.4065700818        2.1179326268        2.6255478449
 H         -5.1286629516        2.0863577930       -2.2635755349
 H         -6.6829037114        2.7659540603       -1.7769313351
 H         -6.3749379354        1.7186526733        0.4952087450
 H         -6.5721357342        0.5906988431       -0.8577182809
 O         -4.5006705454       -0.5423309395       -0.7696484559
 C         -3.4043166442       -1.3788546700       -0.6061214226
 O         -3.4155626624       -2.3641414345       -1.3678103825
 O         -1.7633119659        0.4345245684        2.0665499407
 C         -1.2440640073       -1.9273880421        0.6065082777
 C         -0.2280631035       -1.7394844844       -0.4950746199
 C         -0.3155788966       -2.4145423188       -1.7082266607
 C          0.6410737198       -2.2176557962       -2.6874142166
 C          1.7107299068       -1.3673156942       -2.4716580394
 C          1.8008924713       -0.6787524809       -1.2673256145
 C          0.8282782289       -0.8607799305       -0.2946718809
 H          0.9056418333       -0.3124239873        0.6339489666
 N          2.8632417753        0.2061513031       -1.0246633980
 S          3.4822001623        0.2981955846        0.5445089058
 O          3.5126113614       -1.0182923376        1.1403026710
 O          2.7629578581        1.3155592034        1.2691589981
 C          5.1436397447        0.8556565467        0.2112101633
 C          5.3796150038        2.2081466578        0.0524787557
 C          6.6667148023        2.6338655123       -0.2355722722
 C          7.6902026740        1.7060564965       -0.3602831586
 C          7.4386028197        0.3521647490       -0.1959403689
 C          6.1536068382       -0.0804975474        0.0913036240
 H          5.9125288339       -1.1211741848        0.2373458337
 H          8.2367960667       -0.3664691461       -0.2892908240
 H          8.6909501476        2.0407271925       -0.5832939365
 H          6.8667578728        3.6858202814       -0.3601997050
 H          4.5547072426        2.8919177157        0.1683715432
 H          3.5958146452        0.1429672873       -1.7182627246
 H          2.4656047999       -1.2296147211       -3.2310221723
 H          0.5597771299       -2.7448923511       -3.6260095601
 H         -1.1500897051       -3.0731255874       -1.8863703263
 H         -0.7942751547       -1.5429389865        1.5329705804
 C         -1.5976996357       -3.3862511995        0.8163931142
 C         -0.5667898104       -4.2979488096        1.4091723146
 C         -1.7699384249       -3.9042293269        2.2110900385
 H         -2.5335738713       -4.6452016650        2.3942348470
 H         -1.6347967061       -3.2056752510        3.0242685405
 H         -0.5016193642       -5.3108323708        1.0427290049
 H          0.3858841024       -3.8631977207        1.6749860437
 H         -2.2524213690       -3.7889961635        0.0546856366
