  62
        -98.93438823
 C         -2.4050519153       -1.0894047735        0.0442866976
 C         -2.3847936827        0.3170714063        0.1832637880
 C         -3.6757094441        0.9597142821        0.4937194228
 C         -4.7707846245        0.1929894000        0.6376280227
 C         -6.1806078114        0.6478929250        0.8962431603
 C         -6.9502667826        0.8080060918       -0.4258628554
 C         -6.8092454753        2.1761651213       -1.0917798002
 H         -7.2889692113        2.1119018840       -2.0711010368
 H         -7.3566405314        2.9181495654       -0.5067812408
 C         -5.3716797183        2.6677497752       -1.2808433556
 H         -5.3778958079        3.4280918825       -2.0643603978
 H         -4.7438964925        1.8471817210       -1.6333969409
 C         -4.7686051428        3.2751807597       -0.0054555289
 H         -4.3505650427        4.2574242376       -0.2355692528
 H         -5.5641455262        3.4402272257        0.7209644229
 C         -3.6411206035        2.4564948073        0.6414294512
 H         -2.6799884521        2.7535391052        0.2091435955
 H         -3.5890436978        2.7002142389        1.7079897785
 H         -8.0111446054        0.6321179293       -0.2371198086
 H         -6.6060017243        0.0281452933       -1.1098845761
 H         -6.6582266096       -0.1392419870        1.4832350189
 H         -6.1892909959        1.5689707792        1.4711582083
 O         -4.7407933011       -1.1623796852        0.5084238408
 C         -3.5716141908       -1.8351724497        0.2084671540
 O         -3.6939011444       -3.0737704975        0.1230509794
 H          1.4948369973       -1.0486288508       -0.6873181671
 C          1.2261272120       -1.1418626010        0.3505787325
 C         -0.0550508856       -1.5223237574        0.7168002542
 C         -0.3571652582       -1.6371898106        2.0715709512
 C          0.5927802936       -1.3528236035        3.0324222859
 C          1.8625746562       -0.9450803756        2.6628214450
 C          2.1802209573       -0.8424013089        1.3141440587
 N          3.4835702798       -0.4810192061        0.9203958822
 S          3.7183186264        0.6086138298       -0.3489527241
 O          3.1167545539        1.8864095665       -0.0352018061
 O          3.3195981257       -0.0067415662       -1.5881985437
 C          5.4966267599        0.7420236003       -0.2954203631
 C          6.0848302910        1.8346109724        0.3125089538
 C          7.4680830748        1.9085038874        0.3659798859
 C          8.2351722307        0.8926703283       -0.1839162819
 C          7.6303664163       -0.1977434280       -0.7916882330
 C          6.2482107544       -0.2768803242       -0.8494078005
 H          5.7343282660       -1.0995262177       -1.3184650082
 H          8.2301596805       -0.9843618231       -1.2203423906
 H          9.3112290487        0.9524579381       -0.1411177851
 H          7.9410360362        2.7564313660        0.8347715080
 H          5.4484669218        2.6046302420        0.7185436718
 H          4.0431613835       -0.1873731067        1.7112148145
 H          2.6018279561       -0.7107498855        3.4141514848
 H          0.3414940772       -1.4396860651        4.0790272977
 H         -1.3544138070       -1.9435255142        2.3591467207
 C         -1.1286902908       -1.8364720101       -0.2964024361
 H         -1.3723553805       -2.9065440943       -0.2169507079
 C         -0.7177326680       -1.5374451011       -1.7230729433
 C          0.0513425450       -2.5500978545       -2.5151687798
 C         -1.3845849824       -2.2749704225       -2.8435352403
 H         -1.6145910277       -1.7362476450       -3.7505841146
 H         -2.1229777253       -3.0169913179       -2.5755884019
 H          0.8141132298       -2.1974014281       -3.1931524591
 H          0.2893500632       -3.4851093260       -2.0308466642
 H         -0.4895294764       -0.4884489392       -1.8805645653
 O         -1.3404347920        1.0100019276        0.0505499879
