  62
        -98.93920759
 C          2.1083625094        1.0218421706        0.2100689249
 C          1.9008637364       -0.1093378237       -0.6193974594
 C          2.4458997578       -1.3815423928       -0.1150848585
 C          3.0621833518       -1.4179567945        1.0790169016
 C          3.7044181714       -2.6333254151        1.6817356113
 C          5.1835755309       -2.7352902452        1.2832384354
 C          5.4324120069       -2.5706716955       -0.2160272152
 H          5.1724268120       -1.5513908882       -0.5105326533
 H          6.5049502530       -2.6907257040       -0.3830455028
 C          4.6632156373       -3.5626953468       -1.0994786247
 H          4.3225769404       -4.4069262020       -0.4990893967
 H          5.3425563193       -3.9563311630       -1.8583964302
 C          3.4700150376       -2.9577728650       -1.8420976556
 H          3.7864453282       -2.0574072669       -2.3748680498
 H          3.1328335349       -3.6793979736       -2.5910907274
 C          2.2566812149       -2.5998520431       -0.9743316712
 H          1.4205937248       -2.3672844385       -1.6414109139
 H          1.9707909186       -3.4591081641       -0.3636146699
 H          5.5635199820       -3.7038929598        1.6128404727
 H          5.7373738817       -1.9546703720        1.8096523505
 H          3.6334569529       -2.5553000073        2.7679269569
 H          3.1654686384       -3.5206332936        1.3552921987
 O          3.2180204506       -0.3191989752        1.8609962682
 C          2.7516167183        0.9153946507        1.4461453768
 O          2.9746639090        1.8406885915        2.2543054772
 H         -0.4770338915        0.6626657345       -0.0492831657
 C         -0.7470080102        1.6478630487        0.2972983950
 C          0.2008935596        2.6593051161        0.3307110507
 C         -0.1826869517        3.9202717410        0.7747723362
 C         -1.4864268034        4.1620931524        1.1664199338
 C         -2.4305725888        3.1527395815        1.1256049395
 C         -2.0546514396        1.8836291589        0.6976073297
 N         -2.9849713666        0.8332778070        0.7078766349
 S         -2.7980265789       -0.4904763021       -0.3195313345
 O         -1.7881532627       -1.3629969889        0.2240449919
 O         -2.6261555391       -0.0440981968       -1.6833603438
 C         -4.4061643403       -1.2391635569       -0.1297961966
 C         -5.4163871751       -0.8952331768       -1.0084980137
 C         -6.6741208387       -1.4516498941       -0.8371139274
 C         -6.9003888627       -2.3371648895        0.2059308260
 C         -5.8766456429       -2.6748544813        1.0785684053
 C         -4.6168215926       -2.1214235689        0.9125743611
 H         -3.7883640044       -2.3588120585        1.5596151741
 H         -6.0546555884       -3.3664556369        1.8861372278
 H         -7.8797140484       -2.7692538581        0.3377068001
 H         -7.4706197175       -1.1934005906       -1.5161487196
 H         -5.1906012787       -0.2120265864       -1.8114554678
 H         -3.9437587479        1.1510309078        0.7434482841
 H         -3.4481755552        3.3383191509        1.4331813516
 H         -1.7716923147        5.1458253892        1.5066445209
 H          0.5515894357        4.7102718813        0.8189769037
 C          1.6206197611        2.4184732756       -0.1316834420
 H          2.2699697628        3.1065932228        0.4291103927
 C          1.7280723779        2.7577243146       -1.6071649031
 C          1.9947943245        4.1704102145       -2.0275634307
 C          3.0600564703        3.1279236730       -2.1837079981
 H          3.3057909555        2.7755336237       -3.1740241249
 H          3.9032012969        3.1553952899       -1.5083571896
 H          1.5043895659        4.5416637812       -2.9142123542
 H          2.1282591309        4.9114092325       -1.2543683777
 H          1.0675648638        2.1632125247       -2.2259348103
 O          1.3034637157       -0.0853351486       -1.7282331454
