  62
        -98.94329867
 C         -2.5078310085       -1.0492252181       -0.1596444805
 C         -3.6564883754       -0.8857290561        0.6517547536
 C         -4.6825686842        0.0239520210        0.1311332960
 C         -4.4979833443        0.6276125266       -1.0572427958
 C         -5.4611146972        1.5671821192       -1.7308645926
 C         -5.3522054501        3.0213917963       -1.2519406429
 C         -5.9007568998        3.2876232040        0.1504395100
 H         -5.9618234191        4.3711547065        0.2699050315
 H         -6.9153762430        2.8947846915        0.2233300007
 C         -5.0415956570        2.7140812542        1.2859563615
 H         -4.9179639073        3.4686887978        2.0660294884
 H         -4.0441399402        2.4809846418        0.9059444462
 C         -5.6220107686        1.4662255470        1.9515817683
 H         -4.9171676922        1.1247488649        2.7140639206
 H         -6.5600423929        1.7193922463        2.4506235650
 C         -5.8804148959        0.2994614810        0.9892122120
 H         -6.0778313684       -0.5968994798        1.5823171491
 H         -6.7526518020        0.5082957283        0.3702624206
 H         -4.3041160104        3.3261008461       -1.2973082371
 H         -5.9091498094        3.6396870707       -1.9597010630
 H         -6.4816707274        1.2110036284       -1.5879432568
 H         -5.2283738056        1.5380119496       -2.7974481264
 O         -3.3864515682        0.4306973145       -1.8147518546
 C         -2.3569905196       -0.3924066170       -1.3808247387
 O         -1.3908217548       -0.4584586456       -2.1640517273
 O         -3.8152740796       -1.4712853274        1.7563382777
 C         -1.3929472098       -1.9578670938        0.3278482720
 C         -0.1362057014       -1.1458074265        0.5199145234
 C         -0.1571010595       -0.0970836354        1.4368025092
 C          0.9601555647        0.6889832007        1.6379251851
 C          2.1241943840        0.4511771558        0.9267675710
 C          2.1595297136       -0.5955968342        0.0171862241
 C          1.0357477610       -1.3914443678       -0.1757478600
 H          1.0795548101       -2.1983052158       -0.8903808899
 N          3.3286671105       -0.8342597770       -0.7203167091
 S          4.8152851448       -0.8202178954        0.0504862190
 O          5.6798199857       -1.6224225920       -0.7871710422
 O          4.7008506354       -1.2293682102        1.4311099354
 C          5.3342571755        0.8804775902       -0.0424856807
 C          5.7135472045        1.5487015391        1.1051096193
 C          6.1245676586        2.8690182027        1.0074331298
 C          6.1502858308        3.4937824589       -0.2299176191
 C          5.7692182446        2.8076604879       -1.3735408354
 C          5.3579466679        1.4875872066       -1.2826931625
 H          5.0557446419        0.9208652690       -2.1476354310
 H          5.7900040473        3.2969258895       -2.3340910700
 H          6.4691639053        4.5214970024       -0.3040288061
 H          6.4215076427        3.4040181349        1.8952164325
 H          5.6725760142        1.0242218271        2.0465826347
 H          3.2563617318       -1.5969615844       -1.3771623666
 H          2.9980881761        1.0641474901        1.0745532099
 H          0.9265770915        1.4983048140        2.3515717235
 H         -1.0679854984        0.0924412025        1.9884292606
 H         -1.7204948731       -2.3157993112        1.3148113841
 C         -1.2290377780       -3.1498847144       -0.5901783246
 C         -0.5857456516       -4.4038388386       -0.0798588096
 C         -2.0597830364       -4.3727471783       -0.3480354811
 H         -2.4411233484       -4.9138567322       -1.2009637682
 H         -2.7343151322       -4.3565328017        0.4953900723
 H          0.0449573557       -4.9711619934       -0.7478934172
 H         -0.2561643513       -4.4126290158        0.9482326371
 H         -1.0519960306       -2.8657270104       -1.6214425343
