  62
        -98.94585723
 C         -2.0643655911       -1.0711102338       -0.4703982052
 C         -1.0823029396       -1.4786155163       -1.4095204005
 C         -0.2501067703       -2.6256457554       -1.0362300910
 C         -0.4208652619       -3.2002375251        0.1679319562
 C          0.3494542752       -4.3744468373        0.7079513727
 C          1.6975018886       -3.9885093375        1.3322313119
 C          2.7986944824       -3.6408521140        0.3298301730
 H          2.8688416940       -4.4294770627       -0.4207819183
 H          3.7406578942       -3.6282468659        0.8818387793
 C          2.6157405968       -2.2814660960       -0.3593513416
 H          3.5685944472       -1.7452135866       -0.3642264869
 H          1.9175838927       -1.6730826542        0.2212075461
 C          2.1367926201       -2.3632383167       -1.8085152703
 H          2.8942090236       -2.8672097779       -2.4134756851
 H          2.0268675188       -1.3446636683       -2.1851391173
 C          0.7999065645       -3.0906371697       -2.0011982396
 H          0.9424925158       -4.1671626956       -1.9042258462
 H          0.4373588614       -2.8755098273       -3.0097105135
 H          2.0347211706       -4.8357359237        1.9345109538
 H          1.5406577342       -3.1404096708        2.0042609665
 H          0.5079651551       -5.1090294151       -0.0825648700
 H         -0.2742755898       -4.8249050838        1.4832301026
 O         -1.3595841696       -2.7757305270        1.0498144462
 C         -2.1836165647       -1.6885241367        0.7763390025
 O         -2.9637129380       -1.4151089740        1.7069726335
 O         -0.9176708726       -0.9044857189       -2.5207474188
 C         -2.8874274891        0.1482914875       -0.8536728089
 C         -2.0884409295        1.3988695986       -0.5786385252
 C         -2.0818643588        2.4718843047       -1.4626567751
 C         -1.3017892137        3.5870540433       -1.2103700495
 C         -0.4752791551        3.6320147537       -0.1013102664
 C         -0.4648314088        2.5577036275        0.7798692154
 C         -1.2989371659        1.4727423533        0.5594643766
 H         -1.2882460338        0.6549653563        1.2633393415
 N          0.4235361385        2.4997588743        1.8757059487
 S          1.5688556155        1.2727199011        1.7807115554
 O          0.9241037789       -0.0134790153        1.8057391785
 O          2.5021231834        1.5459575700        2.8518962107
 C          2.3592715717        1.5585845406        0.2070733316
 C          1.7261962798        1.1511166803       -0.9502088461
 C          2.2979023086        1.4687590552       -2.1725642285
 C          3.4879776828        2.1778303785       -2.2180600498
 C          4.1151367709        2.5744424342       -1.0462758118
 C          3.5427783138        2.2709871507        0.1782746805
 H          3.9914130334        2.5610062573        1.1147311290
 H          5.0426878376        3.1226024180       -1.0834217968
 H          3.9273958361        2.4207536878       -3.1725320441
 H          1.7993065667        1.1572748603       -3.0771527057
 H          0.8063749549        0.5903127172       -0.8923401140
 H          0.8944339152        3.3747735127        2.0641214828
 H          0.1660644534        4.4821971749        0.0752803200
 H         -1.3125454434        4.4165509241       -1.9003582209
 H         -2.6766876176        2.4194208082       -2.3624280864
 H         -3.0169158131        0.0808160637       -1.9465940748
 C         -4.2731701589        0.1857924134       -0.2300185443
 C         -4.6222757660        1.0812547473        0.9167817658
 C         -5.1726293244        1.3668922877       -0.4463685727
 H         -6.2211980313        1.1862348265       -0.6275267295
 H         -4.7701792774        2.2156150901       -0.9773752879
 H         -5.2769560645        0.6870916573        1.6785450818
 H         -3.8503509831        1.7275705036        1.3058753674
 H         -4.7434746225       -0.7918068558       -0.2335403635
