  62
        -98.93611919
 C         -1.8003209800       -0.1522404499       -0.2390311003
 C         -2.9025167099       -0.3382520208       -1.1054318902
 C         -4.2257726000       -0.3991332201       -0.4670886403
 C         -4.3115519601       -0.2905595988        0.8715684596
 C         -5.5892178902       -0.2582579180        1.6614395994
 C         -6.2467092401        1.1317014219        1.5438649880
 C         -7.5918149101        1.1336547412        0.8172438778
 H         -7.8494407700        2.1742909010        0.6090144068
 H         -8.3569488501        0.7323480819        1.4851418082
 C         -7.6461553100        0.3359398099       -0.4892781814
 H         -8.5535970699        0.6445189994       -1.0127662018
 H         -7.7620187100       -0.7258957199       -0.2668294603
 C         -6.4496826099        0.5116170689       -1.4332759714
 H         -5.9544368099        1.4661219491       -1.2539805423
 H         -6.8265472998        0.5367745079       -2.4578511315
 C         -5.4096832799       -0.6224330110       -1.3671228802
 H         -4.9797218898       -0.7600611020       -2.3638391600
 H         -5.9063205099       -1.5575186607       -1.0930120693
 H         -5.5514847401        1.7962629614        1.0267995274
 H         -6.3966988002        1.5486915429        2.5408191375
 H         -5.3344330403       -0.4717277969        2.6996584397
 H         -6.2634969301       -1.0323647883        1.3017122401
 O         -3.2272202802       -0.1186100380        1.6715823395
 C         -1.9462756401       -0.0450722385        1.1438894696
 O         -1.0480476702        0.1111505923        1.9911937995
 O         -2.7838947498       -0.4557040320       -2.3559143001
 C         -0.4062145799       -0.0755093205       -0.8310133103
 C          0.4829788800       -1.1630292900       -0.2796303191
 C         -0.0399135200       -2.4368851998       -0.0719293478
 C          0.7502819699       -3.4545053193        0.4247919233
 C          2.0875654999       -3.2319519690        0.7019063832
 C          2.6260392399       -1.9715478092        0.4795019919
 C          1.8240623500       -0.9452341997       -0.0019566092
 H          2.2627920400        0.0251482301       -0.1653713901
 N          3.9781824799       -1.7115772090        0.7490822218
 S          4.8789883100       -0.8141499901       -0.3394385090
 O          4.4133818001       -0.9958255414       -1.6942837889
 O          6.2509308100       -1.2000055098       -0.0832462185
 C          4.6637045600        0.8789526004        0.1655937293
 C          4.6315311399        1.1789386318        1.5130533790
 C          4.5163379898        2.5044450722        1.9001202176
 C          4.4457926599        3.5030254812        0.9403707566
 C          4.4852120301        3.1857130399       -0.4084175131
 C          4.5950053501        1.8610070495       -0.8024138117
 H          4.6168282702        1.5689821784       -1.8402386414
 H          4.4299791701        3.9630543891       -1.1541439138
 H          4.3579814499        4.5340144615        1.2450633056
 H          4.4819264397        2.7547165932        2.9482795874
 H          4.6874397798        0.3790694925        2.2322720898
 H          4.5001513099       -2.5037887986        1.0948030127
 H          2.7086409098       -4.0270219486        1.0861096440
 H          0.3247467099       -4.4330749691        0.5898896342
 H         -1.0815416400       -2.6183535200       -0.2996641778
 H         -0.5351192698       -0.2620956316       -1.9085099801
 C          0.1613882501        1.3168253997       -0.6444196316
 C          1.0868559102        1.9069462586       -1.6645392921
 C         -0.3174414698        2.4152561988       -1.5443295327
 H         -0.4773896099        3.3957694092       -1.1220557137
 H         -1.0276796598        2.1491641280       -2.3136854425
 H          1.8906005601        2.5402059590       -1.3205507127
 H          1.3393575703        1.3007658378       -2.5218643715
 H          0.3273321500        1.5593584107        0.3993877082
