  62
        -98.94521658
 C         -1.4874604584       -0.8135504219       -0.5350411295
 C         -2.6166404684       -1.0128032960        0.3020028072
 C         -3.3347043623        0.1900973305        0.7382017974
 C         -2.8756180890        1.3973877190        0.3623449416
 C         -3.5226568273        2.7079930469        0.7035118678
 C         -4.5287413504        3.1310877479       -0.3759765244
 C         -5.5106885492        2.0273202965       -0.7688961630
 H         -6.1903256588        2.4464927708       -1.5138854334
 H         -4.9600770526        1.2181568826       -1.2539077765
 C         -6.3235345622        1.4554300435        0.4009791058
 H         -7.3679872026        1.3712492470        0.0936134754
 H         -6.2891079173        2.1427045242        1.2470622754
 C         -5.8814164569        0.0649076062        0.8609405450
 H         -5.8227418088       -0.6046367731       -0.0007749943
 H         -6.6485553750       -0.3310614456        1.5316665863
 C         -4.5442645944        0.0024769704        1.6104036799
 H         -4.5450560061        0.7274828259        2.4272863400
 H         -4.4497565721       -0.9987607441        2.0411156857
 H         -3.9733454049        3.4295979106       -1.2679989247
 H         -5.0801254497        4.0000271234       -0.0120714744
 H         -2.7402928919        3.4653180019        0.7805734772
 H         -4.0215200274        2.6190542661        1.6668303550
 O         -1.7842247252        1.5548745759       -0.4233898274
 C         -1.0601572334        0.4661772190       -0.8885956113
 O         -0.0931139703        0.7923238355       -1.6044099056
 O         -3.0106204989       -2.1555786416        0.6619979043
 C         -0.7396738828       -2.0677300068       -0.9583645110
 C          0.3457643218       -2.3752087824        0.0473065856
 C          0.3467373843       -3.5769097671        0.7444824756
 C          1.3158730660       -3.8339489023        1.6979125822
 C          2.2826105868       -2.8892928887        1.9863656645
 C          2.2914560921       -1.6819136447        1.2934362255
 C          1.3429043915       -1.4453001756        0.3101474201
 H          1.3511341442       -0.5092102436       -0.2221613088
 N          3.2654344361       -0.7166169186        1.5768851353
 S          2.9713477148        0.9345869888        1.5105407560
 O          3.7719147043        1.4775848458        2.5910269405
 O          1.5604448362        1.2325411032        1.5552182400
 C          3.7226831185        1.4195350110       -0.0293741989
 C          2.9585180490        1.6991736548       -1.1428622099
 C          3.6015989081        2.0538178205       -2.3202852796
 C          4.9846237637        2.1234470014       -2.3645123169
 C          5.7382269361        1.8418153218       -1.2343493944
 C          5.1036922151        1.4864683988       -0.0564438119
 H          5.6484456923        1.2740391885        0.8484107325
 H          6.8142245571        1.8989957691       -1.2691607285
 H          5.4764990782        2.4004565673       -3.2837283870
 H          3.0089301308        2.2700525000       -3.1949987725
 H          1.8823000497        1.6326969726       -1.0929307271
 H          3.8696481316       -0.9464801178        2.3521103342
 H          3.0244180753       -3.0771656210        2.7478853476
 H          1.3074451653       -4.7704352074        2.2347734262
 H         -0.4312433722       -4.3008242094        0.5519863699
 H         -1.4802106935       -2.8777617325       -0.9011585598
 C         -0.1815441884       -2.0300290519       -2.3660659802
 C          0.0874349505       -3.3240821905       -3.0722200635
 C         -1.0496989378       -2.4523487053       -3.5115816211
 H         -0.9641343027       -1.9175449042       -4.4453464478
 H         -2.0560005286       -2.7733789575       -3.2842239828
 H          0.9581334211       -3.3916671862       -3.7058214378
 H         -0.1489065997       -4.2386015346       -2.5497000070
 H          0.5029662480       -1.2105108956       -2.5382341646
