  62
        -98.94409364
 C          2.1151939433        0.9276504503        0.1102293899
 C          2.4766631804       -0.3889600827       -0.2653841134
 C          3.7671248701       -0.8656510704        0.2506604279
 C          4.5029326331       -0.0774503709        1.0546332816
 C          5.8241788454       -0.4340827688        1.6799316093
 C          7.0321906007       -0.2058615727        0.7610933293
 C          7.1778504805       -1.2098631225       -0.3830910720
 H          8.1727723143       -1.0671768707       -0.8095371677
 H          7.1379400348       -2.2234561683        0.0171602863
 C          6.1358342601       -1.0535353205       -1.4993725867
 H          5.6667778334       -0.0698256493       -1.4245493659
 H          6.6337435658       -1.0976691648       -2.4706629342
 C          5.0435065660       -2.1230736604       -1.5019443656
 H          5.4872575454       -3.0998885553       -1.7071527166
 H          4.3431279109       -1.8955820099       -2.3095937749
 C          4.2453352210       -2.2147794448       -0.1946851424
 H          3.3645055278       -2.8368955517       -0.3723836736
 H          4.8500443476       -2.6806763887        0.5831698886
 H          6.9746425251        0.8058894920        0.3531426271
 H          7.9290525555       -0.2630385771        1.3822097268
 H          5.9341582380        0.2053366244        2.5584781656
 H          5.8058435867       -1.4738996564        2.0077031614
 O          4.1036515972        1.1698875037        1.4193205094
 C          2.9152467695        1.7040783157        0.9515983228
 O          2.6822599311        2.8624970068        1.3514898218
 O          1.7716323539       -1.1345963518       -0.9941987448
 C          0.8074282971        1.5475555996       -0.3572220201
 C         -0.3294499341        0.8097867148        0.3068775403
 C         -0.6187415410        1.0849905602        1.6409569085
 C         -1.6189330871        0.3990932004        2.3034555146
 C         -2.3504585530       -0.5785340070        1.6512841897
 C         -2.0699474550       -0.8590460145        0.3208897321
 C         -1.0739757928       -0.1578275483       -0.3482943770
 H         -0.8577508773       -0.3986017280       -1.3766582217
 N         -2.8039553719       -1.8509996126       -0.3467786486
 S         -4.4574655132       -1.9197349299       -0.1255806353
 O         -4.7592082164       -2.5794725068        1.1207073264
 O         -4.9718937925       -2.5572082371       -1.3172919784
 C         -4.9881920820       -0.2176405458       -0.0494111778
 C         -4.7518650385        0.5876617146       -1.1461116026
 C         -5.1304560180        1.9190391186       -1.0940055834
 C         -5.7346808470        2.4208810218        0.0488234711
 C         -5.9689689964        1.5987056977        1.1397294898
 C         -5.5914726712        0.2660890250        1.0932851667
 H         -5.7540312577       -0.4075599806        1.9188243027
 H         -6.4409667663        1.9908760856        2.0261264810
 H         -6.0249730341        3.4589466023        0.0878660597
 H         -4.9503505827        2.5603434560       -1.9418043189
 H         -4.2856856795        0.1656384203       -2.0217638782
 H         -2.5418452827       -1.9832144701       -1.3117637670
 H         -3.1197493927       -1.1384785648        2.1577677562
 H         -1.8295496060        0.6221647996        3.3383294721
 H         -0.0361745755        1.8379565771        2.1538638988
 H          0.8111028671        2.5769317689        0.0251899775
 C          0.7174690521        1.5903249395       -1.8680457970
 C         -0.2955803445        2.4831234058       -2.5174902188
 C          1.1617278559        2.8251122309       -2.5902288851
 H          1.6730617027        2.7129717992       -3.5347046485
 H          1.5256395850        3.6490256059       -1.9937247253
 H         -0.7868098241        2.1407292462       -3.4155068915
 H         -0.9218289123        3.0766241670       -1.8689878928
 H          0.9362554065        0.6396949935       -2.3383284505
