  62
        -98.93894074
 C         -0.5971505687       -1.6509590512        0.7245225886
 C         -1.4942208388       -1.7837590312       -0.3612374813
 C         -2.7121046594       -0.9587793623       -0.2961942306
 C         -2.8737021099       -0.1055816431        0.7314981100
 C         -4.0229552207        0.8482205559        0.8999527608
 C         -3.8650600318        2.0556412667       -0.0452631684
 C         -4.9397761121        2.1575989965       -1.1275276082
 H         -4.6130049428        2.9152487872       -1.8426914877
 H         -5.8688345123        2.5106449455       -0.6750454478
 C         -5.2489203512        0.8619837367       -1.8824482090
 H         -5.8111952515        1.1389643769       -2.7767928187
 H         -5.9101798006        0.2353856658       -1.2819603493
 C         -4.0318415406        0.0284144980       -2.3030397897
 H         -3.1430193411        0.6541516688       -2.3843798094
 H         -4.2259405304       -0.3781821715       -3.2977553499
 C         -3.7297331094       -1.1689969324       -1.3836659005
 H         -3.3188387489       -1.9793677816       -1.9933197211
 H         -4.6617835291       -1.5324057434       -0.9411554006
 H         -2.8794717018        1.9970428378       -0.5102561186
 H         -3.8881739325        2.9771187763        0.5371157022
 H         -4.9580665003        0.3281100153        0.7018997206
 H         -4.0208577608        1.1752452752        1.9397273310
 O         -1.9593838099        0.0329383870        1.7277348500
 C         -0.8132705393       -0.7433112121        1.7608476493
 O         -0.0771232093       -0.5350867921        2.7463028293
 H          1.4869920199       -0.0058940792        0.2596546094
 C          1.8716490503       -0.6852592484       -0.4874139812
 C          1.5638429014       -2.0373430488       -0.3923168420
 C          2.0669080120       -2.9038528777       -1.3525397426
 C          2.8484295514       -2.4180740564       -2.3872445024
 C          3.1583426703       -1.0735893661       -2.4737599616
 C          2.6667982498       -0.1983776971       -1.5107047910
 N          2.9435362986        1.1757933531       -1.5692828801
 S          3.2288436582        2.0243159924       -0.1543643996
 O          3.9458520572        3.2056369533       -0.5884623090
 O          3.9009923690        1.2050534023        0.8271073797
 C          1.6221335679        2.5198186208        0.4262462710
 C          1.2724950283        2.2922799696        1.7416912009
 C          0.0375140380        2.7291079883        2.1932011514
 C         -0.8186511327        3.3866375382        1.3253904820
 C         -0.4532649631        3.6080957294        0.0056622120
 C          0.7794013772        3.1728077207       -0.4518902485
 H          1.1012813069        3.3292347816       -1.4681726984
 H         -1.1252643736        4.1200040993       -0.6647763675
 H         -1.7776909829        3.7266335072        1.6823006223
 H         -0.2515319917        2.5365381874        3.2136933713
 H          1.9571383688        1.7616384097        2.3845503304
 H          3.5737202083        1.4537357841       -2.3076992100
 H          3.7720856599       -0.6994843751       -3.2790987915
 H          3.2272448718       -3.0990186556       -3.1343753030
 H          1.8405942228       -3.9557644779       -1.2983131933
 C          0.6850100820       -2.4653078202        0.7585366179
 H          1.1984586619       -2.1845276304        1.6901198780
 C          0.3892831331       -3.9489282305        0.7923691770
 C          1.3960207940       -4.8984664900        1.3666024162
 C          0.1300093239       -4.6063080915        2.1131793166
 H         -0.6271769355       -5.3740212222        2.1674027762
 H          0.1872404535       -3.9868744221        2.9967242970
 H          2.3163963537       -4.4807498995        1.7465491463
 H          1.5083180947       -5.8705867597        0.9108589655
 H         -0.2023380567       -4.2783452404       -0.0533148732
 O         -1.2998343483       -2.5600353104       -1.3329999718
