  62
        -98.93507183
 C         -1.9424474790       -1.3563846968        0.3715040241
 C         -2.4373020059       -0.6093248406       -0.7238787837
 C         -3.6530033382        0.1917933571       -0.4770308888
 C         -4.2074929961        0.2049274081        0.7486396915
 C         -5.4580094034        0.8814130334        1.2702657063
 C         -6.1193773793        2.0123391826        0.4865364228
 C         -5.2873999173        3.2896357214        0.3769394276
 H         -5.8159845566        3.9855682265       -0.2781701491
 H         -5.2225076111        3.7492360516        1.3665246195
 C         -3.8621934823        3.1075812854       -0.1401697746
 H         -3.3898963292        4.0933713392       -0.1738204217
 H         -3.2894154392        2.5036885857        0.5671238852
 C         -3.7429971812        2.4887068229       -1.5318986155
 H         -4.3402972472        3.0641391233       -2.2417321466
 H         -2.6953358443        2.5656015936       -1.8365244371
 C         -4.1460183784        1.0072411426       -1.6369929023
 H         -5.2208931107        0.8957399655       -1.7577168971
 H         -3.6692615413        0.5929318575       -2.5301369052
 H         -7.0392531218        2.2635881543        1.0216047257
 H         -6.4142789922        1.6661259332       -0.4996430370
 H         -6.1941535431        0.0816333832        1.4086498146
 H         -5.2036968742        1.2419442860        2.2720976001
 O         -3.6736364674       -0.5081830943        1.7839860610
 C         -2.5331131902       -1.2768674437        1.6331504609
 O         -2.1429002721       -1.8234153480        2.6845584681
 H          0.2772841420        0.1533179603        0.9557283066
 C          0.7697737551       -0.2095497097        0.0610389718
 C          0.3884909720       -1.4380979708       -0.4666877411
 C          1.0297241711       -1.8938103308       -1.6100996287
 C          2.0059460603       -1.1242783230       -2.2198817491
 C          2.3672308595        0.1060266902       -1.7043896134
 C          1.7391966595        0.5667437439       -0.5535479173
 N          2.1054048529        1.8122387287       -0.0152955770
 S          3.7357296695        2.1725837955        0.0897264212
 O          3.8485718463        3.0953830561        1.1978146171
 O          4.2101306217        2.6581881661       -1.1821197739
 C          4.5337407729        0.6247770024        0.4791406709
 C          5.4638124466        0.0901262599       -0.3886555813
 C          6.0460537399       -1.1288185700       -0.0793894752
 C          5.6862830268       -1.7903275292        1.0842115285
 C          4.7525571871       -1.2383575646        1.9481841338
 C          4.1693017875       -0.0190527988        1.6451646585
 H          3.4441744302        0.4387574084        2.2991752280
 H          4.4736682469       -1.7538016430        2.8533047764
 H          6.1355835291       -2.7415787827        1.3218463511
 H          6.7739971356       -1.5593372378       -0.7478663546
 H          5.7117403292        0.6368080268       -1.2838237475
 H          1.6179195493        2.0546472390        0.8340637689
 H          3.1096651442        0.7252589724       -2.1811744211
 H          2.4868092687       -1.4850388230       -3.1161996201
 H          0.7462606540       -2.8386309265       -2.0428541804
 C         -0.6888861234       -2.2071624829        0.2591272906
 H         -0.3526918544       -2.3496087361        1.2998259344
 C         -0.9271799527       -3.5982575413       -0.3091152025
 C         -2.2587860589       -4.2719677031       -0.1686204256
 C         -1.7785212423       -3.8358091714       -1.5185970924
 H         -1.4698992681       -4.5965949415       -2.2207558332
 H         -2.2410027362       -2.9778824621       -1.9796477752
 H         -2.2774491976       -5.3275963085        0.0574523395
 H         -3.0571448517       -3.7126755262        0.2977280898
 H         -0.0561596388       -4.2357440203       -0.1934788538
 O         -1.9061900312       -0.6031790951       -1.8633254772
