  62
        -98.93288699
 C         -2.3675551717       -0.9606781327        0.1359453687
 C         -2.6696913469        0.4159839444        0.0104773325
 C         -4.0724296918        0.7910485177        0.2531018584
 C         -4.9591087803       -0.1634432520        0.5897554217
 C         -6.4331753692        0.0463103845        0.7907167622
 C         -7.1390179992        0.1599336032       -0.5756755235
 C         -7.7552575616        1.5309623359       -0.8547984281
 H         -8.0251715338        1.5585991888       -1.9126257096
 H         -8.6765410050        1.6301210377       -0.2769816984
 C         -6.8696783033        2.7389669972       -0.5343884865
 H         -7.3242017862        3.6040162186       -1.0219150028
 H         -6.8940900837        2.9380198353        0.5379553456
 C         -5.4054075567        2.6358332441       -0.9807647441
 H         -5.0942726121        3.6137326982       -1.3538161461
 H         -5.3035518197        1.9337991877       -1.8086585202
 C         -4.4195318430        2.2496340624        0.1380298957
 H         -4.7960276404        2.6128297196        1.0982503330
 H         -3.4638331112        2.7481800567       -0.0496824525
 H         -7.9291649969       -0.5895814423       -0.6404199163
 H         -6.4139138613       -0.0805963507       -1.3560224430
 H         -6.8109065533       -0.8143660283        1.3429202918
 H         -6.5997988216        0.9425365845        1.3839770815
 O         -4.6240069731       -1.4745942239        0.7154988402
 C         -3.3281748826       -1.9068335360        0.4900836170
 O         -3.1593798889       -3.1339828081        0.6418194059
 O         -1.8128838709        1.2893222967       -0.2869866098
 C         -0.9542740561       -1.4502362431       -0.1161123742
 C          0.0279239142       -0.7573440412        0.7974744823
 C         -0.2829613357       -0.6123360710        2.1473669280
 C          0.6045681438       -0.0082844759        3.0161934077
 C          1.8318278603        0.4446759468        2.5645445307
 C          2.1543574392        0.3006542908        1.2211410217
 C          1.2534520830       -0.2933454219        0.3473932389
 H          1.5329618899       -0.3905714100       -0.6882146657
 N          3.3847298362        0.7604030414        0.7241384632
 S          4.1413844485       -0.1435203161       -0.4855063225
 O          3.6223667535        0.2597456471       -1.7679285501
 O          4.0567990148       -1.5526904830       -0.1748363885
 C          5.8235596577        0.4247655697       -0.3123237108
 C          6.7030538003       -0.3004736782        0.4695418835
 C          8.0011254288        0.1604574302        0.6227070238
 C          8.3950927972        1.3338813020       -0.0027353075
 C          7.5014674337        2.0506039687       -0.7848042801
 C          6.2022919471        1.5948381816       -0.9430221857
 H          5.4760452611        2.1127444630       -1.5476311154
 H          7.8123317075        2.9607166500       -1.2719498675
 H          9.4059053204        1.6904095652        0.1174974479
 H          8.6989296350       -0.3963190521        1.2271575310
 H          6.3554368261       -1.2122086155        0.9282879479
 H          4.0307998400        1.0241748641        1.4554451654
 H          2.5283602895        0.9110151239        3.2446764002
 H          0.3437537676        0.1017393626        4.0582232792
 H         -1.2359476491       -0.9790227630        2.5051157570
 H         -0.9514533910       -2.5208059289        0.1404482992
 C         -0.6097242850       -1.3045369417       -1.5840784227
 C          0.3659029772       -2.2405590215       -2.2294258008
 C         -1.0938113513       -2.3385500438       -2.5538330664
 H         -1.4289750964       -2.0160566766       -3.5281489476
 H         -1.6529060447       -3.1707846464       -2.1508822023
 H          1.0396676839       -1.8464919781       -2.9761370994
 H          0.8056309112       -3.0091402540       -1.6110078404
 H         -0.6137006096       -0.2702308184       -1.9104718884
