  62
        -98.94529948
 C          2.1419803735        0.8745625045        0.0756413268
 C          2.8630778322        0.2170008410        1.0999369665
 C          3.6024221264       -0.9861875919        0.6958152646
 C          3.5165205497       -1.4132409033       -0.5775052867
 C          4.2576877241       -2.5921717537       -1.1370896053
 C          5.6128995285       -2.1688578325       -1.7212971909
 C          6.4434479297       -1.2926354433       -0.7834537006
 H          7.3887498942       -1.0821922648       -1.2881464685
 H          5.9333289015       -0.3367160010       -0.6444974979
 C          6.7251045478       -1.9205023102        0.5887291204
 H          6.5586290503       -2.9974108544        0.5445978252
 H          7.7773519871       -1.7648935827        0.8355876735
 C          5.9064758336       -1.3280292768        1.7371917344
 H          6.3336694624       -1.6840720076        2.6783648487
 H          5.9971522337       -0.2389782312        1.7276497606
 C          4.4151003770       -1.6868466967        1.7483666887
 H          4.2958530165       -2.7695981657        1.6707416674
 H          4.0028028250       -1.3639238380        2.7089882242
 H          5.4323497463       -1.6099928381       -2.6424443104
 H          6.1750283087       -3.0694672202       -1.9748318867
 H          4.4034793227       -3.3305527982       -0.3508729376
 H          3.6511229070       -3.0341841806       -1.9295526237
 O          2.7716009069       -0.7841139078       -1.5224323635
 C          2.0744824884        0.3790569693       -1.2268421651
 O          1.4474700563        0.8609006880       -2.1884902493
 H         -0.1013081963        0.1005113114        1.2335369750
 C         -0.7002095462        0.8000690674        0.6622846796
 C         -0.0955810418        1.9405035354        0.1469145543
 C         -0.8742862162        2.8278898534       -0.5832922054
 C         -2.2161411762        2.5660234714       -0.8015564220
 C         -2.8111061330        1.4268886534       -0.2923033719
 C         -2.0427847371        0.5349125872        0.4448720254
 N         -2.6408484087       -0.6202074356        0.9814198723
 S         -3.5213252273       -1.6042293012       -0.0581799063
 O         -3.4822318080       -2.9182634511        0.5473253025
 O         -3.0439257968       -1.5082313008       -1.4182244540
 C         -5.1785241976       -0.9629224106        0.0592061020
 C         -5.7625227884       -0.8934467275        1.3090188539
 C         -7.0530330683       -0.4007053796        1.4176952940
 C         -7.7349865321        0.0086776057        0.2813367912
 C         -7.1361220240       -0.0710932950       -0.9665610264
 C         -5.8447304800       -0.5620980987       -1.0822146850
 H         -5.3359763671       -0.6375507428       -2.0302340609
 H         -7.6676120649        0.2470186632       -1.8490371240
 H         -8.7392584071        0.3921866700        0.3686686494
 H         -7.5219290428       -0.3370793947        2.3863621278
 H         -5.1994229431       -1.2254991351        2.1651318919
 H         -2.0078963654       -1.1780881015        1.5368302149
 H         -3.8538973871        1.2173725753       -0.4656790751
 H         -2.8073100760        3.2603363301       -1.3788677693
 H         -0.4290971096        3.7194860420       -0.9927171629
 C          1.3763241435        2.1418834363        0.4115078603
 H          1.5115185086        2.2861040129        1.4940045703
 C          1.9713289885        3.3287285775       -0.3161295781
 C          1.8599747742        4.7046800608        0.2673457643
 C          3.1812203122        3.9981716859        0.2612586699
 H          3.9506796234        4.3433935752       -0.4129412514
 H          3.5617073300        3.6130078777        1.1961853846
 H          1.7241688404        5.5395288919       -0.4033188821
 H          1.3449872552        4.8067062648        1.2104240064
 H          1.9257836996        3.2207254884       -1.3940859638
 O          2.8825009190        0.6143481928        2.2968562862
