  62
        -98.93906726
 C         -1.5195716502       -0.8156769402       -0.3989417195
 C         -2.7939940402       -1.4241542901       -0.4226861189
 C         -3.9485404601       -0.5181791902       -0.5550549301
 C         -3.7310176000        0.8052520997       -0.6505662915
 C         -4.7632695999        1.8957727997       -0.7324722928
 C         -5.0809335900        2.4484309013        0.6674364465
 C         -6.1779463101        1.6990609822        1.4227353772
 H         -7.1427188801        1.9081392918        0.9556743569
 H         -6.2104993002        2.1053532134        2.4363610568
 C         -5.9956260103        0.1813655823        1.5079145289
 H         -6.5929906104       -0.1810588367        2.3469312093
 H         -4.9527772903       -0.0524685175        1.7297853093
 C         -6.4355261702       -0.5525321991        0.2324204497
 H         -7.0047172501        0.1336737503       -0.3945439411
 H         -7.1159877103       -1.3639384387        0.4991860205
 C         -5.2990162302       -1.1803637401       -0.5887039395
 H         -5.6192814601       -1.2670661912       -1.6324632694
 H         -5.1152328903       -2.1997098797       -0.2343989583
 H         -5.3902288499        3.4911399812        0.5711453353
 H         -4.1566358301        2.4340926019        1.2506414566
 H         -5.6616679999        1.5405038393       -1.2283407325
 H         -4.3236697197        2.6964736790       -1.3305925837
 O         -2.4833503799        1.3496728496       -0.6294917720
 C         -1.3486703200        0.5652789797       -0.5004072410
 O         -0.2790303100        1.1995579596       -0.4895993416
 O         -2.9631546203       -2.6707044200       -0.3252849476
 C         -0.2842605603       -1.6860944702       -0.2671146684
 C          0.5452098997       -1.2419821389        0.9114995712
 C         -0.0810130505       -0.9888127075        2.1296266809
 C          0.6450340095       -0.5525051264        3.2201105505
 C          2.0101459995       -0.3470365966        3.1188274504
 C          2.6479461196       -0.6151379380        1.9143134908
 C          1.9181549397       -1.0760238292        0.8263539912
 H          2.4419661298       -1.3040355002       -0.0856190685
 N          4.0297589596       -0.4342935283        1.7849145907
 S          4.7324557098       -0.0916742300        0.3121848904
 O          4.8202156898       -1.2907352709       -0.4840297782
 O          5.9982949798        0.5178158103        0.6623435599
 C          3.6911037800        1.1068574992       -0.4999337010
 C          3.3353349400        2.2527096100        0.1813743077
 C          2.5445324402        3.1924301394       -0.4576438935
 C          2.1277827503        2.9746528380       -1.7607120833
 C          2.4987751503        1.8224074172       -2.4335516419
 C          3.2868461601        0.8772868778       -1.7984777408
 H          3.5900875301       -0.0377327327       -2.2831433898
 H          2.1682726604        1.6523553361       -3.4463407918
 H          1.5035737904        3.7035928275       -2.2527317341
 H          2.2469764902        4.0879401000        0.0637692655
 H          3.6751401899        2.3985862611        1.1940882175
 H          4.4827521796        0.0392254525        2.5515853902
 H          2.5762954094        0.0114489343        3.9646947301
 H          0.1435385594       -0.3576294153        4.1562553902
 H         -1.1502998005       -1.1320535574        2.2068030209
 H         -0.6554087204       -2.7032895299       -0.0717070673
 C          0.4866677299       -1.6873651117       -1.5708935483
 C          1.3117844198       -2.8745943122       -1.9647916569
 C          0.0343479799       -2.5757586729       -2.6890819174
 H          0.0876854401       -2.2009438440       -3.7001566678
 H         -0.8197269402       -3.2106322226       -2.5033178467
 H          2.2499870399       -2.7081221828       -2.4732116170
 H          1.3271246397       -3.7181909414       -1.2911526259
 H          0.8525729200       -0.7000242020       -1.8320061493
