  62
        -98.93482239
 C          2.1031733898        1.0074698604        0.2931154450
 C          1.9955505033        0.0153405300       -0.7104181103
 C          2.2341438216       -1.3784019612       -0.2860722073
 C          2.5220045288       -1.6485437093        0.9992443042
 C          2.7532464206       -2.9633690212        1.7151890380
 C          3.0633469272       -4.2376043719        0.9330728163
 C          4.3940641540       -4.2248351133        0.1824100713
 H          5.2065911040       -4.2204303683        0.9130758112
 H          4.4671440601       -5.1505255750       -0.3925721617
 C          4.6102616591       -3.0403229800       -0.7562449146
 H          4.6676271741       -2.1172701641       -0.1757871294
 H          5.5787613808       -3.1742156329       -1.2455521709
 C          3.5565846584       -2.8710941587       -1.8497884803
 H          3.4457855532       -3.8054205692       -2.4033499566
 H          3.9234984238       -2.1111303943       -2.5446246746
 C          2.1665612488       -2.4180201312       -1.3670990080
 H          1.6456225471       -1.9517691507       -2.2088279971
 H          1.5587606290       -3.2605228755       -1.0437772632
 H          3.1057371220       -5.0474783846        1.6666447213
 H          2.2478594675       -4.4696753916        0.2542200108
 H          3.5642821160       -2.7732563168        2.4254749812
 H          1.8511271885       -3.1352864490        2.3134355944
 O          2.6049653809       -0.6592440383        1.9368233134
 C          2.3889008539        0.6663375305        1.6161095347
 O          2.4951499428        1.4478108483        2.5846387709
 H         -0.3352332291        1.0397811467       -0.7374115617
 C         -0.6058723118        1.9385200603       -0.2049130393
 C          0.3741308491        2.8018160830        0.2602744374
 C         -0.0179258362        3.9587126073        0.9247189555
 C         -1.3576432902        4.2332212424        1.1312240954
 C         -2.3304141960        3.3477652204        0.7036207924
 C         -1.9485347282        2.1912984070        0.0335310650
 N         -2.9020596811        1.2632463854       -0.4147608265
 S         -2.5070336590       -0.3777852191       -0.2891913709
 O         -1.7561142028       -0.6161376489        0.9235400020
 O         -1.9016199377       -0.8085191840       -1.5231649400
 C         -4.1394425013       -1.0868373489       -0.1542163291
 C         -4.6522469587       -1.3722191593        1.0969844816
 C         -5.9349462256       -1.8887984104        1.1942063191
 C         -6.6804377021       -2.1061207572        0.0451758821
 C         -6.1523372698       -1.8148305821       -1.2039310497
 C         -4.8700057688       -1.2996579396       -1.3082410436
 H         -4.4127517877       -1.0667018980       -2.2557405424
 H         -6.7335508349       -1.9876253527       -2.0952352039
 H         -7.6782652079       -2.5076992575        0.1238484529
 H         -6.3462927635       -2.1191164789        2.1637310934
 H         -4.0319240520       -1.1933882998        1.9607890644
 H         -3.8314766511        1.4515538737       -0.0635090591
 H         -3.3752719306        3.5462633531        0.8879259221
 H         -1.6472488604        5.1342952950        1.6500630025
 H          0.7370184290        4.6343541663        1.2980133657
 C          1.8391366317        2.4856255299        0.0605886683
 H          2.3990073857        3.0167303895        0.8441632228
 C          2.3051294802        2.9981107679       -1.2883071824
 C          2.7051553008        4.4346220521       -1.4313602207
 C          3.7463810542        3.3578705793       -1.4806775139
 H          4.2111863623        3.1239927260       -2.4263696722
 H          4.4047329619        3.2453418473       -0.6312500848
 H          2.4524668789        4.9477462397       -2.3463027616
 H          2.6676763767        5.0584139885       -0.5514326306
 H          1.7946320641        2.5299724029       -2.1196859843
 O          1.7112249738        0.2507013096       -1.9151866515
