  62
        -98.94699073
 C         -2.1621289480       -0.8604672586       -0.5096527583
 C         -1.4789462206        0.1944511788       -1.1605253256
 C         -2.0206785676        1.5451083528       -0.9483615461
 C         -3.0966296136        1.7146799210       -0.1609838119
 C         -3.7180725047        3.0377184062        0.1789259466
 C         -3.1196255417        3.6251692315        1.4641237169
 C         -1.5906819463        3.6378847620        1.4909410621
 H         -1.2866026663        4.1181610986        2.4241541825
 H         -1.2150897749        2.6118690352        1.5283587230
 C         -0.9376810079        4.3644331024        0.3069370712
 H         -1.6640394636        5.0208862145       -0.1749647143
 H         -0.1308423280        4.9939418685        0.6884090546
 C         -0.3183580890        3.4293206768       -0.7334762689
 H          0.3308252831        4.0224096307       -1.3837919282
 H          0.3072787579        2.6938916824       -0.2210282113
 C         -1.3159303649        2.6841014983       -1.6302500303
 H         -2.0378373684        3.3908304126       -2.0453096437
 H         -0.7552969689        2.2402397993       -2.4579779575
 H         -3.4703827045        3.0326601698        2.3124598751
 H         -3.4940024795        4.6439316572        1.5833769206
 H         -3.5694230794        3.7264823624       -0.6505032022
 H         -4.7889659543        2.8853280195        0.3256099946
 O         -3.7296105303        0.6811415977        0.4509448334
 C         -3.2720777703       -0.6160712307        0.3050188318
 O         -3.9399237218       -1.4639587089        0.9327092374
 H          0.6571069693       -1.0924183573       -0.2121471026
 C          0.4765596437       -1.8474231122        0.5335635182
 C         -0.6938394857       -2.5923742473        0.4872125442
 C         -0.9060864059       -3.5686267529        1.4527754221
 C          0.0261992788       -3.7808599220        2.4528730905
 C          1.1675386572       -3.0039824953        2.5234219388
 C          1.3892383881       -2.0224769584        1.5622173686
 N          2.5324570811       -1.2131720028        1.6222383373
 S          2.4630417942        0.4407441604        1.3148288466
 O          3.2913501478        1.0363682264        2.3459009247
 O          1.1021313694        0.9101762633        1.2447617961
 C          3.3186615964        0.6030120090       -0.2392198306
 C          4.7008136640        0.6093782372       -0.1945349815
 C          5.4140808414        0.7107965756       -1.3766848968
 C          4.7366025837        0.8037313090       -2.5835638707
 C          3.3514232372        0.7971660841       -2.6114907795
 C          2.6299518571        0.6949518052       -1.4307556177
 H          1.5507144319        0.6813299611       -1.4396950500
 H          2.8182581223        0.8672746064       -3.5462726274
 H          5.2898594832        0.8828425236       -3.5062558503
 H          6.4919698129        0.7173737213       -1.3547165360
 H          5.1855610332        0.5502634889        0.7658747912
 H          3.1212682041       -1.3934177590        2.4225450895
 H          1.8816255903       -3.1479462197        3.3205198171
 H         -0.1478250326       -4.5430580899        3.1974115443
 H         -1.8179766597       -4.1471709283        1.4287719974
 C         -1.7303817715       -2.3185818282       -0.5775073525
 H         -2.6255219598       -2.9046986350       -0.3267925496
 C         -1.2389851472       -2.7603070697       -1.9413586591
 C         -1.3055355779       -4.2138710179       -2.2978105511
 C         -2.2296894242       -3.2363671700       -2.9587348275
 H         -2.0639448801       -2.9838151290       -3.9950644251
 H         -3.2721043703       -3.2467128749       -2.6741603784
 H         -0.5023015823       -4.6371582924       -2.8808713598
 H         -1.7234849869       -4.8907090013       -1.5679547659
 H         -0.3928088129       -2.1909946932       -2.3006940329
 O         -0.4691110306        0.0442413573       -1.8987443030
