  62
        -98.93825078
 C         -2.2097626785       -0.9177329906        0.4566592494
 C         -2.5272351775       -0.1797369321       -0.7068993071
 C         -3.4476387001        0.9592474112       -0.5303272606
 C         -3.9069940420        1.2560476041        0.6996319651
 C         -4.8144115747        2.3686268131        1.1824122379
 C         -5.6555196176        3.1748275756        0.1958475002
 C         -6.7587524294        2.3815500748       -0.5032487345
 H         -7.5180571468        2.1155435420        0.2364830402
 H         -7.2293014992        3.0326637170       -1.2431651035
 C         -6.3114646547        1.0928381465       -1.1888109514
 H         -5.9402034994        0.3889661876       -0.4410226368
 H         -7.1920968510        0.6368890744       -1.6492725898
 C         -5.2539899720        1.2642027168       -2.2778288005
 H         -5.5956847861        1.9986002306       -3.0096095377
 H         -5.1519845878        0.3038250526       -2.7899705152
 C         -3.8549669605        1.6753950634       -1.7854990507
 H         -3.1282813036        1.3867059998       -2.5505128358
 H         -3.7809514163        2.7523854675       -1.6549551071
 H         -6.1361591358        3.9681443639        0.7749268154
 H         -5.0164734390        3.6620743879       -0.5345822420
 H         -5.4758254408        1.9094996731        1.9240897645
 H         -4.1691772041        3.0617914781        1.7338758743
 O         -3.5292919410        0.5413277277        1.8020177517
 C         -2.6910609663       -0.5556460820        1.7119772655
 O         -2.4466060971       -1.1085605241        2.8048586533
 H          0.1363549939       -0.0112556550        1.1051038602
 C          0.6625640533       -0.5886812302        0.3531782910
 C          0.0589009773       -1.7272070212       -0.1671159242
 C          0.7536876962       -2.4669526980       -1.1147822758
 C          2.0084315362       -2.0632168628       -1.5382384702
 C          2.5980256557       -0.9221714927       -1.0269307296
 C          1.9168184553       -0.1803877995       -0.0706197381
 N          2.5162824183        0.9826138502        0.4580429135
 S          3.9518528555        0.7503620056        1.3079523548
 O          3.9879450348       -0.5546542703        1.9284708272
 O          4.0576512822        1.8876565558        2.1960501058
 C          5.2153342242        0.8649614386        0.0594009369
 C          6.0357062404       -0.2182109999       -0.1882815569
 C          7.0165815442       -0.1063269830       -1.1614425532
 C          7.1587581598        1.0799598035       -1.8650241148
 C          6.3279265896        2.1592496368       -1.6023768837
 C          5.3460749986        2.0546565864       -0.6300858191
 H          4.6835163259        2.8696606433       -0.3907958083
 H          6.4418269096        3.0801209361       -2.1513238913
 H          7.9219100590        1.1641789420       -2.6225275650
 H          7.6636140754       -0.9438638841       -1.3668118093
 H          5.8837614829       -1.1210753545        0.3811152683
 H          1.8817752800        1.5300695208        1.0226238690
 H          3.5706847174       -0.5996848132       -1.3607130993
 H          2.5331106657       -2.6450659646       -2.2803971323
 H          0.3114198401       -3.3601470983       -1.5242439960
 C         -1.2973001494       -2.1260964993        0.3640026771
 H         -1.1587941531       -2.4807294429        1.3968390797
 C         -1.9648572312       -3.2214598095       -0.4419246588
 C         -1.6773886422       -4.6618285050       -0.1460854605
 C         -3.0047210793       -4.0717075513        0.2215913648
 H         -3.8757553925       -4.3603558547       -0.3472384153
 H         -3.2097583214       -3.8787166262        1.2650461781
 H         -0.9830305673       -4.8799995451        0.6514178110
 H         -1.6401886360       -5.3603160018       -0.9683700721
 H         -2.1379254623       -2.9317692256       -1.4718421226
 O         -2.0626220167       -0.4512613532       -1.8438322123
