  62
        -98.93335965
 C         -1.6980548097       -0.3745104588       -0.4128209306
 C         -2.8730442498       -0.5209134981       -1.1923084105
 C         -4.1515673097       -0.4736447087       -0.4677499002
 C         -4.1379314494       -0.3415980298        0.8709213799
 C         -5.3512297692       -0.2013279006        1.7457106302
 C         -5.9129314092        1.2311485095        1.6432021815
 C         -7.3010738494        1.3204621301        1.0088274819
 H         -7.4964532794        2.3738198803        0.7967964328
 H         -8.0455318992        0.9871883895        1.7349812817
 C         -7.5025605896        0.5082721712       -0.2741631288
 H         -8.4201370597        0.8731584116       -0.7406655683
 H         -7.6774897796       -0.5388537690       -0.0224398096
 C         -6.3652731198        0.5825644520       -1.3011527389
 H         -5.7931308898        1.5020970519       -1.1758103683
 H         -6.8097198200        0.6187709429       -2.2978953488
 C         -5.4062666898       -0.6223680980       -1.2832057801
 H         -5.0554390400       -0.8049221371       -2.3034263103
 H         -5.9487075198       -1.5150650183       -0.9591737908
 H         -5.2088231593        1.8348396300        1.0668073219
 H         -5.9636102391        1.6739754287        2.6390085519
 H         -5.0403239990       -0.4157399814        2.7683677400
 H         -6.1034186793       -0.9295263403        1.4501729697
 O         -2.9903192393       -0.2484221004        1.5895256597
 C         -1.7425541694       -0.2680877799        0.9779469695
 O         -0.7905615592       -0.1892769206        1.7749054494
 O         -2.8515232100       -0.6929220870       -2.4409552807
 C         -0.3650843698       -0.4234031782       -1.1369335809
 C          0.5799169203       -1.3725066688       -0.4438226619
 C          0.1612215604       -2.6797655990       -0.2044684329
 C          0.9884598005       -3.5824798495        0.4324210162
 C          2.2656497406       -3.2121723399        0.8180968262
 C          2.6985992805       -1.9170015396        0.5716766572
 C          1.8545753404       -1.0045077991       -0.0467040018
 H          2.2047399404        0.0017373910       -0.2005030010
 N          3.9872812006       -1.4986547000        0.9412915873
 S          4.8919222404       -0.6333687590       -0.1714851421
 O          4.5746698501       -1.0220857179       -1.5263768024
 O          6.2662724105       -0.8294645894        0.2395075475
 C          4.4554479805        1.0715281007        0.0940069594
 C          4.1868257803        1.8767135717       -0.9951510698
 C          3.8915599703        3.2143922215       -0.7840676886
 C          3.8718546406        3.7206885604        0.5067104518
 C          4.1441124008        2.8983197595        1.5896538510
 C          4.4429072707        1.5608983696        1.3849268399
 H          4.6609916509        0.8932377990        2.2015177992
 H          4.1236334410        3.2954769886        2.5916934914
 H          3.6394893706        4.7615122703        0.6690618827
 H          3.6769369902        3.8544652422       -1.6252079781
 H          4.2050356501        1.4386036225       -1.9805219002
 H          4.5452872707       -2.2052162604        1.3986182366
 H          2.9176932206       -3.9190125803        1.3090033255
 H          0.6429298805       -4.5878607897        0.6220325954
 H         -0.8323411097       -2.9745779187       -0.5152874230
 H         -0.6080718300       -0.8586380973       -2.1217010012
 C          0.2488418802        0.9421769621       -1.4087435399
 C         -0.6015566998        2.1731496421       -1.4948052487
 C          0.3468319804        1.9971873012       -0.3489340190
 H          1.2358605304        2.6099674411       -0.3181280887
 H         -0.0552458894        1.7615027603        0.6234489409
 H         -0.3666403200        2.9049923828       -2.2528427881
 H         -1.6596388298        2.0646259820       -1.3052883986
 H          1.0746864600        0.8806056226       -2.1118305701
