  62
        -98.94503080
 C         -1.1872291412       -1.8228595290       -0.6840301697
 C         -0.5176577413       -2.3593733295        0.4454697701
 C          0.9075969184       -2.6862026305        0.2472423897
 C          1.4852193683       -2.4688336009       -0.9465901204
 C          2.9311205780       -2.7115148319       -1.2668130708
 C          3.7872876889       -1.4635751925       -1.0129193611
 C          3.5882248198       -0.8387549423        0.3680426690
 H          4.2918896104       -0.0071964828        0.4542216588
 H          2.5865730301       -0.4093925016        0.4374299793
 C          3.7893194394       -1.8037109625        1.5441416489
 H          4.3551803087       -2.6788676929        1.2206444888
 H          4.3793444700       -1.2987901729        2.3119580588
 C          2.4866110193       -2.2519802516        2.2103335093
 H          1.8677628100       -1.3751495912        2.4197477295
 H          2.7350478193       -2.7143189018        3.1700298792
 C          1.6472926284       -3.2647450210        1.4201203595
 H          2.2793493777       -4.0977365914        1.1022009393
 H          0.8787861783       -3.6542765105        2.0947273197
 H          4.8363125187       -1.7386772932       -1.1379280514
 H          3.5398789592       -0.7103686123       -1.7645282810
 H          3.2948850776       -3.5418404121       -0.6644666109
 H          3.0050324875       -2.9807671719       -2.3220316709
 O          0.8074296883       -1.9690958904       -2.0119300602
 C         -0.5286115914       -1.6210438495       -1.9004333498
 O         -1.0204617314       -1.1514772791       -2.9460899697
 O         -1.0579503411       -2.5769939291        1.5590191903
 C         -2.6328547709       -1.3467822280       -0.6739717993
 C         -2.6599693698        0.1489491920       -0.4744360992
 C         -3.4539732795        0.9679489726       -1.2681167990
 C         -3.4343370785        2.3412047925       -1.1002444090
 C         -2.6024809078        2.9230173219       -0.1606531392
 C         -1.8007678581        2.1135240014        0.6365656206
 C         -1.8542142591        0.7346039314        0.4923438106
 H         -1.2418340994        0.1148370310        1.1300235604
 N         -0.9300150375        2.6752977708        1.5876457703
 S          0.6697230222        2.1827209597        1.6335474499
 O          0.7564108614        0.8122388396        2.0603692998
 O          1.3208741331        3.1609291692        2.4768922997
 C          1.2573744518        2.3541057093       -0.0408359203
 C          1.9151603625        3.5122776188       -0.4065796205
 C          2.3363905823        3.6581126986       -1.7184068906
 C          2.0834597813        2.6546502487       -2.6421367705
 C          1.4175675606        1.4998223792       -2.2613937903
 C          1.0029421409        1.3460439595       -0.9483273102
 H          0.4852188104        0.4557185998       -0.6273054801
 H          1.2038848299        0.7151963094       -2.9713990503
 H          2.4067672411        2.7693514385       -3.6647466406
 H          2.8572912728        4.5530842082       -2.0184022007
 H          2.0946547033        4.2638046787        0.3451551095
 H         -0.9808320968        3.6826349608        1.6470155704
 H         -2.5687865670        3.9955813119       -0.0444985692
 H         -4.0575685182        2.9668728830       -1.7205126588
 H         -4.0744646700        0.5226990930       -2.0315695588
 H         -3.0166028413       -1.5453812377       -1.6883551291
 C         -3.5316028811       -2.0913144674        0.3003171410
 C         -4.0038473104       -1.5035596871        1.5923984111
 C         -4.9659713508       -1.6805728164        0.4584364414
 H         -5.7176237513       -2.4516329459        0.5330516616
 H         -5.2916491203       -0.7921684462       -0.0611677285
 H         -4.0697244706       -2.1616994471        2.4452304511
 H         -3.6850894196       -0.5037267073        1.8444762211
 H         -3.3272255719       -3.1564980976        0.3058337809
