  62
        -98.94878138
 C         -0.9357030719       -1.2871932814        0.0446711012
 C         -1.9014390745       -1.0329018430        1.0452096008
 C         -2.6317998162        0.2353376815        0.9256658458
 C         -2.3247344654        1.0772192520       -0.0781178958
 C         -3.0211206811        2.3805856857       -0.3420060135
 C         -4.1995357658        2.1955818065       -1.3080922899
 C         -5.1390512318        1.0536346468       -0.9210455315
 H         -5.9498906259        1.0364804007       -1.6523567258
 H         -4.6037460254        0.1057449366       -1.0106869731
 C         -5.7282986655        1.1684938526        0.4917340883
 H         -5.6289549306        2.1925005453        0.8537299184
 H         -6.7958763957        0.9431550666        0.4460589529
 C         -5.1154027869        0.2095450136        1.5142610153
 H         -5.1298079763       -0.8084177447        1.1165839410
 H         -5.7430044860        0.2197279547        2.4094762923
 C         -3.6824806121        0.5312697965        1.9584805674
 H         -3.6207487087        1.5719292801        2.2849019933
 H         -3.4475668939       -0.1075523255        2.8153705134
 H         -4.7601318823        3.1310903909       -1.3523122651
 H         -3.8012644135        1.9883018358       -2.3037046494
 H         -3.3712825012        2.7955366268        0.6013390512
 H         -2.3029094363        3.0722798897       -0.7845910231
 O         -1.3710324136        0.8114230176       -1.0055858938
 C         -0.6507457419       -0.3732451823       -0.9701033686
 O          0.1945635037       -0.4904998450       -1.8758033972
 H          1.0984133643       -0.5021435535        1.2717151641
 C          1.8012559394       -1.1766072038        0.8050019119
 C          1.3413029425       -2.3069795982        0.1430590957
 C          2.2745874514       -3.1650265561       -0.4276083006
 C          3.6274399500       -2.8864402146       -0.3456327690
 C          4.0785974092       -1.7441600461        0.2897881395
 C          3.1532726996       -0.8818867956        0.8669593541
 N          3.5685416097        0.2906252812        1.5191830509
 S          2.6681244458        1.6875732537        1.4038978551
 O          3.5908708936        2.7316419285        1.8041933891
 O          1.4697789835        1.5866495802        2.2014548321
 C          2.2431706088        1.9316371384       -0.3117240885
 C          3.0868753092        1.4990436169       -1.3140319529
 C          2.7529986351        1.7668358849       -2.6312491174
 C          1.5977638066        2.4723600081       -2.9236401910
 C          0.7675655924        2.9109950212       -1.9059077012
 C          1.0898806132        2.6361602028       -0.5876303804
 H          0.4601906071        2.9390682528        0.2350606986
 H         -0.1354741971        3.4538243208       -2.1358267732
 H          1.3372088493        2.6748762733       -3.9505096638
 H          3.3927987877        1.4175845483       -3.4255474400
 H          3.9813958224        0.9495270803       -1.0709278468
 H          4.5586471880        0.4828413849        1.4742081286
 H          5.1331629295       -1.5202082436        0.3431331958
 H          4.3402749538       -3.5623432588       -0.7926203138
 H          1.9403875214       -4.0529996675       -0.9387299326
 C         -0.1425647263       -2.5775002163        0.0958120388
 H         -0.4319598115       -3.0634708239        1.0406191317
 C         -0.5410482922       -3.4799874817       -1.0563418463
 C         -0.5878185099       -4.9680614553       -0.8829680717
 C         -1.8611431925       -4.1864646305       -0.9939879277
 H         -2.4457083342       -4.2712946891       -1.8977469010
 H         -2.4545064196       -4.0440467106       -0.1022793861
 H         -0.3263391720       -5.3690570690        0.0847590343
 H         -0.2998073170       -5.5934727105       -1.7145930343
 H         -0.2303655343       -3.0836582971       -2.0166179849
 O         -2.1411835533       -1.8299678415        1.9943016476
