  62
        -98.94277557
 C         -1.8157985617       -1.0020928206       -0.2241783450
 C         -3.1934980483       -1.3202111022       -0.1102645853
 C         -4.1351714435       -0.2580645081       -0.4803202228
 C         -3.6668152517        0.9349668294       -0.8887793465
 C         -4.4978215785        2.1094935263       -1.3290222225
 C         -5.0090007277        2.9822074903       -0.1745176042
 C         -6.1270963594        2.3620695547        0.6643740068
 H         -6.9275007259        2.0212967163        0.0068221443
 H         -6.5367508888        3.1573850770        1.2902607631
 C         -5.6738653992        1.2071477217        1.5684508967
 H         -6.0941709106        1.3401861642        2.5678839851
 H         -4.5866973441        1.2319411660        1.6730155779
 C         -6.0926033301       -0.1805271153        1.0826102615
 H         -7.1816368266       -0.2624747352        1.1011359551
 H         -5.6878027103       -0.9234558185        1.7746801718
 C         -5.6011015042       -0.5310966381       -0.3279136774
 H         -6.1708888343        0.0233132303       -1.0735199763
 H         -5.7592867080       -1.6002810390       -0.4898472736
 H         -5.3840065946        3.9110647653       -0.6103750469
 H         -4.1657520771        3.2350071280        0.4722616310
 H         -5.3423893734        1.7580258199       -1.9225492145
 H         -3.8565181418        2.7224525687       -1.9660273650
 O         -2.3386218897        1.2092818266       -0.9646746345
 C         -1.3808035088        0.2635526359       -0.6173884401
 O         -0.2120017761        0.6815428358       -0.7035466643
 O         -3.6151216676       -2.4396237886        0.2844341586
 C         -0.8123317611       -2.0776132995        0.1481232910
 C          0.2686318025       -1.5148379935        1.0368317827
 C         -0.0972070187       -0.9602243629        2.2615252668
 C          0.8546746555       -0.4384943762        3.1145885236
 C          2.1944998630       -0.4629342273        2.7674599361
 C          2.5725258772       -1.0191746355        1.5518363142
 C          1.6115040415       -1.5434454623        0.6959467333
 H          1.9318336249       -1.9464858712       -0.2495748862
 N          3.9317329209       -1.1024496463        1.2028544059
 S          4.5169628272       -0.6024981482       -0.2812911429
 O          3.8305027745       -1.2900845351       -1.3432028242
 O          5.9443686172       -0.8255632154       -0.1960139042
 C          4.2060183771        1.1532290074       -0.3445825053
 C          2.9174193922        1.6098946542       -0.5349444633
 C          2.6919616168        2.9783508932       -0.5333716959
 C          3.7452186184        3.8593190625       -0.3448581185
 C          5.0334785637        3.3821530680       -0.1537635634
 C          5.2670877267        2.0170315322       -0.1487595327
 H          6.2509944252        1.6001925675       -0.0058314828
 H          5.8525275892        4.0679138084       -0.0075295717
 H          3.5601964994        4.9221291188       -0.3470091747
 H          1.6846727120        3.3354228024       -0.6785447134
 H          2.1022146673        0.9185962375       -0.6780915830
 H          4.5592404665       -0.7891464214        1.9300170606
 H          2.9412640494       -0.0582751537        3.4338402278
 H          0.5538529844       -0.0078174672        4.0578163812
 H         -1.1444953142       -0.9404388463        2.5321870648
 H         -1.3951706845       -2.7999157775        0.7452095328
 C         -0.2621237190       -2.8480655128       -1.0427406241
 C         -1.0606624876       -3.0199709658       -2.2992293693
 C          0.1719841720       -2.1689245729       -2.3054722761
 H          1.0580299822       -2.5332067167       -2.8052600122
 H          0.0583742601       -1.0976913181       -2.3619152348
 H         -1.0305390330       -3.9768820986       -2.7982682478
 H         -2.0207393555       -2.5275602818       -2.3558274585
 H          0.3254180672       -3.7069710535       -0.7312899991
