  62
        -98.93173551
 C         -2.1927559306       -0.1503077089        0.4022846583
 C         -3.2366186540       -0.8060093802       -0.2947329480
 C         -4.4258953871        0.0090853106       -0.5980082539
 C         -4.4498241978        1.3052637804       -0.2420959068
 C         -5.6143788183        2.2387304633       -0.4132073365
 C         -6.6696801929        1.9664431635        0.6780236186
 C         -7.9996810934        1.4277177288        0.1501760594
 H         -8.5718140810        1.0719910981        1.0097101142
 H         -8.5603595490        2.2486513090       -0.3017084128
 C         -7.9020108971        0.3022773740       -0.8842423634
 H         -8.8945999611       -0.1469876557       -0.9588897438
 H         -7.6770030409        0.7238346788       -1.8649703824
 C         -6.8829179844       -0.8032905940       -0.5797882561
 H         -6.6868051764       -0.8617027569        0.4910171198
 H         -7.3207315025       -1.7589543174       -0.8750425961
 C         -5.5474514051       -0.6696333550       -1.3354789204
 H         -5.7158669441       -0.1631167279       -2.2896205152
 H         -5.1699427296       -1.6719298843       -1.5573983430
 H         -6.2462897168        1.2581654262        1.3933913317
 H         -6.8683266736        2.8867345632        1.2294160876
 H         -5.2306434414        3.2553306996       -0.3254101747
 H         -6.0456357645        2.1123331825       -1.4036685403
 O         -3.4175616263        1.9089657253        0.4030469903
 C         -2.2796899740        1.2023038929        0.7464705253
 O         -1.4253433266        1.8801360300        1.3538642863
 O         -3.2040759857       -2.0122909441       -0.6561981142
 C         -0.9067432093       -0.8410039970        0.8272260446
 C          0.0837053980       -0.9435590699       -0.3084785408
 C         -0.1824584770       -1.7013833760       -1.4443857009
 C          0.7611479273       -1.8080667794       -2.4492963536
 C          1.9908460187       -1.1841249893       -2.3337605340
 C          2.2623977023       -0.4174861938       -1.2067886470
 C          1.3054153694       -0.2943399065       -0.2091675923
 H          1.5264876749        0.3149446113        0.6556650820
 N          3.4918148764        0.2454317790       -1.0662549332
 S          4.1560991089        0.3710423346        0.4809568139
 O          3.9621105378       -0.8658348503        1.2034118526
 O          3.6500076120        1.5650231033        1.1106147126
 C          5.8811047278        0.5849957489        0.0817496162
 C          6.3486300625        1.8521358758       -0.2113919316
 C          7.6830784740        2.0116818729       -0.5498733488
 C          8.5226839639        0.9083480652       -0.5902692822
 C          8.0396142095       -0.3568278201       -0.2914355246
 C          6.7059208745       -0.5237503928        0.0467271090
 H          6.2884612725       -1.4859153016        0.2965692212
 H          8.6954545512       -1.2119925363       -0.3199741895
 H          9.5608848465        1.0360053213       -0.8530195301
 H          8.0627817673        2.9942386082       -0.7792010698
 H          5.6612833039        2.6803483238       -0.1570020162
 H          4.1768506798       -0.0402768364       -1.7524500722
 H          2.7320815490       -1.2823640902       -3.1123994351
 H          0.5420515571       -2.3968071781       -3.3273306640
 H         -1.1364199847       -2.1977891299       -1.5313706318
 H         -0.4595063495       -0.1873212086        1.5894098128
 C         -1.1311995089       -2.2080556632        1.4470626824
 C         -0.0248682297       -2.8190066406        2.2513979826
 C         -1.2663755898       -2.3285794603        2.9332962390
 H         -1.9581286832       -3.0562089988        3.3305932563
 H         -1.2026323725       -1.4213276512        3.5171584576
 H          0.1351166224       -3.8839814252        2.1804278638
 H          0.8847737255       -2.2467219895        2.3671682985
 H         -1.7332799350       -2.8654302640        0.8342471049
