  62
        -98.94182783
 C         -2.3800850424       -1.0791370956        0.1324444239
 C         -3.6356575178       -0.9285110673        0.7794058237
 C         -4.6007727600       -0.0354826089        0.1307309859
 C         -4.2618860882        0.5962418816       -1.0071385398
 C         -5.1397454755        1.5261445870       -1.7999532786
 C         -5.1404862146        2.9724544936       -1.2861418173
 C         -5.8936356800        3.1968659982        0.0257825010
 H         -6.0003249017        4.2760448773        0.1523851034
 H         -6.8970714633        2.7780524563       -0.0566569843
 C         -5.1931557226        2.6218167507        1.2648602090
 H         -4.1449976461        2.4210725104        1.0301381407
 H         -5.2039067415        3.3640013300        2.0662646515
 C         -5.8302343629        1.3475140877        1.8192830017
 H         -5.2333011888        1.0079254426        2.6694333924
 H         -6.8366874604        1.5687316168        2.1811730241
 C         -5.9164955791        0.1941853468        0.8112142509
 H         -6.6949010475        0.3946566712        0.0753303427
 H         -6.1739372748       -0.7178034213        1.3553145617
 H         -4.1051432516        3.3033498597       -1.1741423277
 H         -5.6047980174        3.5913994038       -2.0574571192
 H         -6.1605907432        1.1430692132       -1.8144507256
 H         -4.7523778640        1.5241607431       -2.8211888173
 O         -3.0463793468        0.4382775317       -1.5919021349
 C         -2.0688730656       -0.3821480779       -1.0368228242
 O         -1.0080809564       -0.3948311045       -1.6896287775
 O         -3.9360857788       -1.5172190473        1.8512119218
 C         -1.3614328813       -1.9803592666        0.8103741791
 C         -0.0559692385       -1.2461733638        0.9721990052
 C          0.0871125918       -0.3246127445        2.0052040521
 C          1.2561460400        0.3986904477        2.1477550571
 C          2.3016075536        0.2269917726        1.2570364003
 C          2.1593037367       -0.6733957457        0.2103256748
 C          0.9943779643       -1.4193768960        0.0857949328
 H          0.8888680936       -2.1085852196       -0.7374984164
 N          3.2075181254       -0.8492060710       -0.7073915936
 S          4.0297884106        0.4961414628       -1.2798281616
 O          3.2076519522        1.6835687507       -1.2841878433
 O          4.5775780477        0.0854314891       -2.5546735640
 C          5.3685930890        0.6851814327       -0.1178602348
 C          5.5876489200        1.9059667430        0.4895783621
 C          6.6410091966        2.0323716038        1.3820482394
 C          7.4535556472        0.9414081207        1.6492364395
 C          7.2227673681       -0.2771883519        1.0283961724
 C          6.1722790026       -0.4094880867        0.1346053921
 H          5.9615640467       -1.3371247947       -0.3705999500
 H          7.8569442439       -1.1233585913        1.2384530105
 H          8.2715403010        1.0416574605        2.3450479233
 H          6.8219209753        2.9795510099        1.8644416600
 H          4.9269294492        2.7256857900        0.2549460924
 H          2.9733262558       -1.4722689172       -1.4669328229
 H          3.2098833102        0.7990853297        1.3524848035
 H          1.3552548440        1.1067967626        2.9565030146
 H         -0.7359746703       -0.1751595176        2.6905045489
 H         -1.7823172336       -2.1527474599        1.8141715352
 C         -1.1962014985       -3.3522213083        0.1735819198
 C         -2.3890051047       -4.0937350336       -0.3495631879
 C         -1.3364555218       -3.6043570029       -1.2964456712
 H         -0.6805057725       -4.3326010663       -1.7516832036
 H         -1.5653634262       -2.7672888115       -1.9371304280
 H         -2.4627075396       -5.1541950244       -0.1619350695
 H         -3.3383231564       -3.5783142274       -0.3335880658
 H         -0.4500277450       -3.9447466039        0.6946984004
