  62
        -98.94054906
 C          2.3621288066        0.7887856862       -0.1267452472
 C          3.5665786129        1.0866601806        0.5547024577
 C          4.7896878425        0.5360692846       -0.0390013109
 C          4.7149140184       -0.1815266201       -1.1748740722
 C          5.8756528549       -0.7877118754       -1.9162370623
 C          6.3160532814       -2.1550876024       -1.3755749833
 C          7.0459499166       -2.1185594932       -0.0323389716
 H          7.4848620837       -3.1064193718        0.1208405784
 H          7.8664092821       -1.4023525127       -0.0854681049
 C          6.1472662724       -1.7866600458        1.1671266641
 H          6.3572954492       -2.4815189647        1.9833853171
 H          5.1005346699       -1.9284955958        0.8878956356
 C          6.3246736924       -0.3721968342        1.7193860185
 H          5.6165659195       -0.2330405348        2.5403389749
 H          7.3334667503       -0.2597524872        2.1226255030
 C          6.0822509916        0.7415110610        0.6920075989
 H          6.0142672284        1.6923738982        1.2260670672
 H          6.9133958923        0.7930477851       -0.0107410784
 H          5.4364423899       -2.7979914636       -1.2956014159
 H          6.9853614475       -2.5979132264       -2.1167122090
 H          6.7207293995       -0.0989817146       -1.9001292149
 H          5.5497213090       -0.9152754627       -2.9506852412
 O          3.5380880092       -0.4300552402       -1.8096399189
 C          2.3333371176        0.0252859485       -1.2936000100
 O          1.3339432142       -0.3062891859       -1.9593633729
 O          3.6159967715        1.7761682740        1.6086507458
 C          1.0529844843        1.3080894393        0.4383853181
 C          0.1343958914        0.1562886870        0.7634274035
 C          0.6097335503       -0.8689693798        1.5786044504
 C         -0.1944708456       -1.9425293109        1.9059022749
 C         -1.4957197589       -2.0116851685        1.4392068080
 C         -1.9794625566       -0.9956693317        0.6245494927
 C         -1.1662224895        0.0802625087        0.2935201762
 H         -1.5696899265        0.8526307167       -0.3391861065
 N         -3.2857755957       -1.0512375715        0.1136738099
 S         -4.1434870008        0.3883457471       -0.0826938508
 O         -3.7802344968        0.9886156090       -1.3414394493
 O         -3.9910421549        1.2193898760        1.0904193066
 C         -5.8080342433       -0.2457188395       -0.1770455016
 C         -6.2545906271       -0.7614744644       -1.3791808187
 C         -7.5358714549       -1.2848668344       -1.4486363864
 C         -8.3446312963       -1.2846504378       -0.3216791066
 C         -7.8835641876       -0.7617565257        0.8770944666
 C         -6.6026046351       -0.2378432830        0.9538695130
 H         -6.2043787648        0.1866375674        1.8613975328
 H         -8.5158486612       -0.7598857815        1.7503079473
 H         -9.3416896295       -1.6918719682       -0.3791923346
 H         -7.8987593237       -1.6894116522       -2.3796861763
 H         -5.5937526547       -0.7320537529       -2.2299655924
 H         -3.8491792966       -1.7687626895        0.5487471416
 H         -2.1266316413       -2.8490613241        1.6960227742
 H          0.1903174379       -2.7297486888        2.5368688576
 H          1.6239855602       -0.8098651207        1.9503218340
 H          1.3193833534        1.8068451009        1.3828345325
 C          0.4375690580        2.3313835553       -0.4915629153
 C         -0.5007205924        3.3679963979        0.0475752987
 C          0.8738596779        3.7616276000       -0.4008188311
 H          0.9768482032        4.3280747663       -1.3141067947
 H          1.6059454008        4.0096843274        0.3537660096
 H         -1.3488613928        3.6565960118       -0.5557180731
 H         -0.7084334953        3.3503906629        1.1070890494
 H          0.2377438906        1.9312308949       -1.4799891778
