  62
        -98.93926868
 C         -2.5455164669       -0.1707686789        0.0369127662
 C         -2.2591838273       -1.1757096121       -0.9127935784
 C         -1.6389092458       -2.4132224389       -0.4083048483
 C         -1.3861834426       -2.5303888459        0.9089539922
 C         -0.7799457171       -3.6576367583        1.7197096510
 C         -0.2031384587       -4.8880292249        1.0270265786
 C          1.1204282896       -4.6411357293        0.2993695272
 H          1.9089329627       -4.5425205756        1.0494629633
 H          1.3488624610       -5.5161425474       -0.3129029663
 C          1.1765211192       -3.3920922137       -0.5774883563
 H          0.9795929137       -2.5009090681        0.0226939783
 H          2.1980850503       -3.2901730329       -0.9565866500
 C          0.2420592325       -3.3926761052       -1.7846962947
 H          0.4706151467       -4.2450010033       -2.4291948123
 H          0.4439222394       -2.4771781836       -2.3500626892
 C         -1.2575395584       -3.4201691566       -1.4560705870
 H         -1.5782281841       -4.4206017452       -1.1766106129
 H         -1.8051911130       -3.1388354855       -2.3610737898
 H         -0.9430098362       -5.3181659800        0.3581375593
 H         -0.0147585017       -5.6293958416        1.8081798023
 H         -0.0036302885       -3.1944917108        2.3375664759
 H         -1.5700101966       -3.9801868135        2.4067428566
 O         -1.7205264419       -1.5470336677        1.7954930697
 C         -2.2441625548       -0.3341812693        1.3874620398
 O         -2.4123124488        0.4896419632        2.3076747453
 O         -2.5088906448       -1.0433006454       -2.1441145779
 C         -3.0431507862        1.1792063773       -0.4439914437
 C         -1.9837227154        2.2243459046       -0.1808016528
 C         -2.2679691717        3.5347546709        0.1790352986
 C         -1.2399971739        4.4369560412        0.4015524754
 C          0.0833359972        4.0525626093        0.2948098477
 C          0.3779880779        2.7396254168       -0.0616142500
 C         -0.6520347968        1.8560927892       -0.3274977932
 H         -0.4101027215        0.8500703418       -0.6375729767
 N          1.7102554629        2.2900956113       -0.1059609333
 S          2.0751401312        0.6736760550       -0.3587154810
 O          1.8158929253        0.2822669001       -1.7287482027
 O          1.4415602810       -0.1053710555        0.6744870142
 C          3.8353955768        0.7278514026       -0.0812192704
 C          4.6995211054        0.7538800875       -1.1590503106
 C          6.0639513799        0.8245860396       -0.9242383048
 C          6.5385443712        0.8697029687        0.3777724980
 C          5.6592727002        0.8406072638        1.4503055011
 C          4.2944517636        0.7694706269        1.2215984140
 H          3.5725813241        0.7354745475        2.0213432213
 H          6.0313584486        0.8725207936        2.4616507330
 H          7.6003668480        0.9248584983        0.5585947030
 H          6.7496318187        0.8437622682       -1.7559247933
 H          4.2843361776        0.7073518753       -2.1529666698
 H          2.3700078076        2.9311921407       -0.5195629578
 H          0.8817128495        4.7504044255        0.4915408206
 H         -1.4757935487        5.4540186026        0.6758854185
 H         -3.2932032997        3.8494086596        0.2879544570
 H         -3.1585759297        1.0774264174       -1.5345695263
 C         -4.3880694739        1.5226248897        0.1604176284
 C         -5.3803330526        2.3391110640       -0.6113012594
 C         -5.6179919945        0.8751544674       -0.3998098317
 H         -6.3955514719        0.5685640867        0.2833317648
 H         -5.4855200826        0.2073685618       -1.2387515375
 H         -6.0007055206        3.0394872343       -0.0727574574
 H         -5.0980163137        2.6660312780       -1.6007801735
 H         -4.3364827802        1.6546646408        1.2351054091
