  62
        -98.93590665
 C         -1.3330916765       -1.5568535444        0.1886762700
 C         -2.2770799686       -0.9670354463        1.0642606809
 C         -3.2013373945        0.0302863888        0.4903699061
 C         -3.0635843161        0.3650581897       -0.8054145614
 C         -3.9075289277        1.3138608370       -1.6148197142
 C         -3.6110500065        2.7963296185       -1.3311909458
 C         -3.3466097346        3.1326275028        0.1343969253
 H         -2.5462005755        2.4933519883        0.5117601882
 H         -2.9904829796        4.1649015098        0.1835828082
 C         -4.5635217339        3.0222386529        1.0498512499
 H         -4.2488355122        3.3229317023        2.0524773086
 H         -5.3267959487        3.7291204038        0.7160306158
 C         -5.2026325528        1.6368535200        1.1455150648
 H         -5.7583280841        1.4023781495        0.2416724399
 H         -5.9333592661        1.6710416068        1.9591319641
 C         -4.2335018378        0.5077274615        1.4827736706
 H         -4.8167472329       -0.3804287928        1.7562788982
 H         -3.6761514083        0.7739605229        2.3882853086
 H         -4.4477284201        3.3929742655       -1.6982182051
 H         -2.7252065974        3.0738576699       -1.9061443879
 H         -3.6865558901        1.1099457994       -2.6649424439
 H         -4.9583070746        1.0889006122       -1.4525607228
 O         -2.0639164101       -0.1416892529       -1.5796780809
 C         -1.1825463014       -1.1113691922       -1.1247851725
 O         -0.3426403525       -1.4632522904       -1.9719582871
 O         -2.3590720286       -1.2688120574        2.2858021266
 C         -0.4583568051       -2.6659626049        0.7447319601
 C          0.9859885074       -2.4442321072        0.3792479385
 C          1.6633218500       -3.2236569960       -0.5491922632
 C          2.9829452888       -2.9517108853       -0.8645252078
 C          3.6582494423       -1.9103813206       -0.2547024502
 C          2.9898428592       -1.1243442184        0.6750268864
 C          1.6648914580       -1.3936878146        0.9851781165
 H          1.1427551667       -0.7746070480        1.7047697079
 N          3.6812781244       -0.0661199783        1.3052881177
 S          4.1565622473        1.2312440837        0.3627052234
 O          4.8733742728        0.7396608535       -0.7846218327
 O          4.8849924442        2.1101947108        1.2485747318
 C          2.6434570531        2.0298853385       -0.1446589719
 C          1.8222476818        1.4017113798       -1.0602637218
 C          0.6317646614        2.0146995472       -1.4189862470
 C          0.2876013667        3.2367435095       -0.8624696494
 C          1.1210978469        3.8525269844        0.0585380253
 C          2.3085515500        3.2421687303        0.4264747616
 H          2.9886914978        3.6825086646        1.1377202957
 H          0.8472817934        4.8020872686        0.4894202069
 H         -0.6368296481        3.7127600233       -1.1479621062
 H         -0.0209716785        1.5218103793       -2.1227838108
 H          2.1064685406        0.4500456208       -1.4813814688
 H          3.2133397250        0.2819794418        2.1307645301
 H          4.6817673999       -1.6792855945       -0.4999225152
 H          3.4939129187       -3.5601659086       -1.5953080817
 H          1.1475796697       -4.0281897691       -1.0468449652
 H         -0.5516280125       -2.5648225416        1.8386605249
 C         -0.9475410710       -4.0650428016        0.3970173342
 C         -2.4125113567       -4.3605304807        0.2853980059
 C         -1.5437235317       -4.4084476784       -0.9338608412
 H         -1.3161623924       -5.3737283474       -1.3621812594
 H         -1.6349002948       -3.6195751189       -1.6641720275
 H         -2.7825159170       -5.2892332582        0.6929197665
 H         -3.0986271093       -3.5328548379        0.3919733996
 H         -0.3377635924       -4.8306418038        0.8671533661
