  62
        -98.93679733
 C          2.6190146445        0.4053366879       -0.2066403169
 C          2.0768687839        1.1624694945        0.8580561513
 C          1.3760420091        2.4136366175        0.4917680401
 C          1.2544200957        2.7437654277       -0.8045054856
 C          0.5040635909        3.8950673762       -1.4183498706
 C         -0.9613687654        3.5061192059       -1.6848343369
 C         -1.9270771063        3.8535937967       -0.5549863817
 H         -1.9821494695        4.9392997728       -0.4460875038
 H         -2.9165619425        3.4973929670       -0.8504337630
 C         -1.5713294831        3.2347936936        0.7977804837
 H         -1.2897761848        2.1883619612        0.6586957182
 H         -2.4694360137        3.2404871681        1.4195787600
 C         -0.4511837825        3.9834657552        1.5341864346
 H         -0.2705510479        4.9423872342        1.0492480342
 H         -0.7755568662        4.2063157634        2.5534524194
 C          0.8600967283        3.2057404189        1.6643569337
 H          1.6527683839        3.8951327850        1.9796817752
 H          0.7546628114        2.4694820143        2.4684585904
 H         -0.9989967152        2.4287285701       -1.8695859336
 H         -1.2997471049        4.0117298762       -2.5918385995
 H          0.5703239544        4.7833972161       -0.7973551468
 H          0.9928459388        4.1000160095       -2.3732038077
 O          1.7937713489        1.9850894005       -1.8008570337
 C          2.4579750738        0.8087072637       -1.5345538945
 O          2.8788467273        0.2149486957       -2.5501100959
 H          0.6935781405       -0.9730480250        0.7942501399
 C          0.9241681107       -1.8376649870        0.1911042174
 C          2.2086886245       -2.0219468382       -0.2957032263
 C          2.4786143854       -3.1606378595       -1.0450323035
 C          1.4751154264       -4.0720209280       -1.3228227352
 C          0.1793209269       -3.8475710779       -0.8933396003
 C         -0.0969879509       -2.7164843113       -0.1338203497
 N         -1.3987201695       -2.4255728981        0.3075839320
 S         -1.8297617638       -0.7862500496        0.3403824903
 O         -1.2912030607       -0.1075672044       -0.8164599933
 O         -1.4870741612       -0.2524330873        1.6331009961
 C         -3.6038691439       -0.9154581636        0.2087426411
 C         -4.2094299180       -0.7308752939       -1.0194008626
 C         -5.5858081595       -0.8654302011       -1.1154369704
 C         -6.3281415902       -1.1849805646        0.0114330567
 C         -5.7062036345       -1.3665254260        1.2379864406
 C         -4.3310032215       -1.2306472615        1.3413052463
 H         -3.8037054758       -1.3508054929        2.2732633304
 H         -6.2868452890       -1.6118057548        2.1125087122
 H         -7.3986468406       -1.2902030600       -0.0663405194
 H         -6.0717967617       -0.7204837087       -2.0667630959
 H         -3.5910060648       -0.4768728620       -1.8655579004
 H         -2.1043518408       -2.9922962915       -0.1432527709
 H         -0.6124571419       -4.5356337368       -1.1477643236
 H          1.6968435964       -4.9511750311       -1.9085284963
 H          3.4740400703       -3.3154953151       -1.4332842622
 C          3.2630917901       -0.9645502988       -0.0516451587
 H          4.0028758730       -1.0477801524       -0.8615695510
 C          3.9689971205       -1.2075300412        1.2657124536
 C          5.0966812856       -2.1930167709        1.3199970087
 C          5.3754330549       -0.7263528820        1.4492711993
 H          5.6585759823       -0.3312436431        2.4128300002
 H          5.8408196010       -0.2197998290        0.6161197067
 H          5.1916697466       -2.8139089494        2.1973094532
 H          5.3840446122       -2.6812733971        0.4013095241
 H          3.3099613981       -1.1483366530        2.1216625219
 O          2.1529383882        0.8333404315        2.0727041323
