  62
        -98.94455019
 C          2.0246794360        1.3280414320        0.0805798185
 C          2.5870783736        0.5835022100        1.1456099473
 C          3.8572310289       -0.0953640610        0.8606153007
 C          4.3956459386        0.0084361193       -0.3683719267
 C          5.6615320523       -0.6661554357       -0.8097212942
 C          5.3736849662       -2.0417413230       -1.4269320438
 C          4.4567797183       -2.9200384941       -0.5755769868
 H          3.4642070926       -2.4647610155       -0.5347003430
 H          4.3485157069       -3.8756272159       -1.0933549832
 C          4.9619208665       -3.1668339065        0.8530232110
 H          4.8408058987       -4.2263344485        1.0885614079
 H          6.0272984904       -2.9417367421        0.9131699420
 C          4.2168737108       -2.3824518388        1.9347610103
 H          3.1402586727       -2.5319587183        1.8180065311
 H          4.4996482033       -2.7934830746        2.9076224655
 C          4.4940026418       -0.8741752762        1.9773310047
 H          5.5714241427       -0.6995247972        2.0038593531
 H          4.0596558118       -0.4831895338        2.9021116314
 H          4.8981132411       -1.8929653550       -2.3991188947
 H          6.3239410286       -2.5539699222       -1.5882181880
 H          6.1428976485       -0.0357018659       -1.5591823407
 H          6.3277679975       -0.7714355540        0.0443302540
 O          3.8145777312        0.7096633007       -1.3734460047
 C          2.6095415249        1.3729535172       -1.1855266620
 O          2.1839784919        1.9523286786       -2.2012443560
 O          2.0496707897        0.4906050438        2.2831989008
 C          0.7125193399        2.0562435782        0.3220096358
 C         -0.3802239504        1.3609866836       -0.4518146147
 C         -1.0640993994        1.9358041133       -1.5137528907
 C         -2.0328881554        1.2158141419       -2.1931583374
 C         -2.3489502476       -0.0775615676       -1.8218114176
 C         -1.6819646666       -0.6556325322       -0.7478520890
 C         -0.7085305169        0.0637161393       -0.0733571556
 H         -0.1830234686       -0.3874210455        0.7590372825
 N         -2.0218014234       -1.9584562084       -0.3428025713
 S         -3.6534625088       -2.3065352309       -0.1888039860
 O         -3.7301333931       -3.3342318732        0.8258510175
 O         -4.1970376228       -2.6559246246       -1.4776487936
 C         -4.3994097521       -0.7918338349        0.3896383788
 C         -5.3557404878       -0.1580442953       -0.3769884841
 C         -5.8912831137        1.0380941864        0.0732860559
 C         -5.4595004231        1.5792114265        1.2739932531
 C         -4.5011359171        0.9277937105        2.0355289940
 C         -3.9640931485       -0.2693787749        1.5915490048
 H         -3.2200129086       -0.8012094966        2.1630534619
 H         -4.1666604633        1.3491678110        2.9699890417
 H         -5.8715331757        2.5137892832        1.6204106923
 H         -6.6383158842        1.5455139583       -0.5154004162
 H         -5.6589504059       -0.6114967618       -1.3065374558
 H         -1.5018328835       -2.2855334561        0.4581617544
 H         -3.0938907576       -0.6528790534       -2.3473382340
 H         -2.5484406869        1.6694650269       -3.0256403126
 H         -0.8282478685        2.9408503679       -1.8205201390
 H          0.5032649331        1.9200397455        1.3927485667
 C          0.8290559838        3.5368418757        0.0354934095
 C         -0.1667309402        4.4836925522        0.6337630377
 C          1.2431710564        4.4601756224        1.1404518708
 H          1.8930295351        5.2887546523        0.9020166726
 H          1.4327100731        4.0243811784        2.1106503334
 H         -0.4872174013        5.3324657137        0.0494051317
 H         -0.9379327647        4.0634108561        1.2611465497
 H          1.2069183025        3.7494760420       -0.9572050435
