  62
        -98.94498571
 C          2.4453197163       -1.2209963593        0.1217006129
 C          3.3675555958       -0.6895487360       -0.8185249649
 C          4.1843735962        0.4429126735       -0.3670866933
 C          4.0233392875        0.9087142194        0.8845413768
 C          4.7482771297        2.0890669781        1.4616812715
 C          3.9623530298        3.3886999279        1.2386017698
 C          3.4882325834        3.5857911074       -0.2014499236
 H          2.7459097782        2.8200094322       -0.4405204024
 H          2.9752874406        4.5491934757       -0.2448421852
 C          4.6092534008        3.5543112602       -1.2499389242
 H          4.4553906357        4.3784596880       -1.9495520722
 H          5.5730881353        3.7155730137       -0.7658181975
 C          4.6666570333        2.2704183248       -2.0798093696
 H          5.3379574793        2.4423238077       -2.9252541750
 H          3.6756293740        2.0538397517       -2.4867999196
 C          5.1689101137        1.0220962567       -1.3435115650
 H          5.3428871087        0.2427666064       -2.0910439529
 H          6.1169248385        1.2428022444       -0.8490047579
 H          3.0834515235        3.3791762145        1.8879118530
 H          4.5938051342        4.2286927142        1.5339474093
 H          4.8689939567        1.9279189109        2.5342778660
 H          5.7318521268        2.1638483098        1.0018860387
 O          3.1377195205        0.3727677931        1.7603451760
 C          2.3193860151       -0.6903339079        1.4053837788
 O          1.5562733580       -1.0526980133        2.3240030029
 O          3.5051346059       -1.1503981261       -1.9827160820
 C          1.5814466121       -2.3820082528       -0.3474950003
 C          0.1978111214       -1.8764227643       -0.6783601034
 C         -0.1775082915       -1.6668357131       -2.0009547768
 C         -1.4241549883       -1.1506414778       -2.3073401447
 C         -2.3179534438       -0.8252277717       -1.3026049895
 C         -1.9463109702       -1.0166431936        0.0214258182
 C         -0.7039528244       -1.5529391938        0.3256571648
 H         -0.4153576721       -1.6753948449        1.3586770933
 N         -2.8399279543       -0.6603207057        1.0516889814
 S         -3.3599345505        0.9402846871        1.0615022439
 O         -2.3977138204        1.8142392327        0.4292237920
 O         -3.6888978605        1.2310061870        2.4401321005
 C         -4.8638346291        0.8958034893        0.1074464476
 C         -4.9823767046        1.6684054825       -1.0311910183
 C         -6.1628532179        1.6162561464       -1.7563918791
 C         -7.1981822899        0.7976366737       -1.3317717534
 C         -7.0645545944        0.0305670527       -0.1838363242
 C         -5.8875358752        0.0786128060        0.5458730918
 H         -5.7435590247       -0.4965559871        1.4451872242
 H         -7.8721619014       -0.6040547564        0.1437127063
 H         -8.1147620928        0.7576406528       -1.8989095907
 H         -6.2686473059        2.2126377976       -2.6483823528
 H         -4.1483410917        2.2859344823       -1.3248232602
 H         -2.4934380858       -0.9072141923        1.9687567366
 H         -3.2877980874       -0.4151636873       -1.5328298005
 H         -1.7016932022       -0.9962143604       -3.3389082859
 H          0.5269580711       -1.8941959543       -2.7881708063
 H          2.0460683690       -2.7208065151       -1.2831105104
 C          1.5595802550       -3.5439321066        0.6243660618
 C          1.1274999423       -4.8917007396        0.1322688192
 C          2.5660511678       -4.6429139520        0.4701167440
 H          2.9748014090       -5.0944252389        1.3616405040
 H          3.2747812603       -4.5610023989       -0.3409892631
 H          0.5452963727       -5.5177297889        0.7907171208
 H          0.8599221979       -4.9789108285       -0.9098391024
 H          1.2880151328       -3.2633539843        1.6335839235
