  62
        -98.93158842
 C         -2.2520964021        0.5619551582       -0.2482329489
 C         -3.4927864595        0.8394241325       -0.8732516502
 C         -4.7121290106        0.5062992482       -0.1172892282
 C         -4.5980517701       -0.0730753555        1.0921287247
 C         -5.6485011915       -0.4828729326        2.1031317837
 C         -7.1183949754       -0.5866860098        1.7040359435
 C         -7.4353515458       -1.7048184958        0.7117210801
 H         -7.2987631801       -2.6652560035        1.2149894510
 H         -8.4875823253       -1.6230340062        0.4307080949
 C         -6.5833284881       -1.7238318998       -0.5549417758
 H         -5.5399729669       -1.9114438293       -0.2926382616
 H         -6.9162749213       -2.5650755538       -1.1690135782
 C         -6.6601437036       -0.4631250257       -1.4140047085
 H         -6.1428604821       -0.6736613247       -2.3539350591
 H         -7.7027610082       -0.2409062822       -1.6491096248
 C         -6.0154600210        0.7945519416       -0.8052224669
 H         -6.6998483563        1.3042684213       -0.1311959676
 H         -5.7849558104        1.4841468336       -1.6225041989
 H         -7.6749449316       -0.7934287215        2.6222284151
 H         -7.4753265013        0.3677237258        1.3284612588
 H         -5.3161043153       -1.4468290156        2.5010413025
 H         -5.5636933115        0.2352977997        2.9263167804
 O         -3.3799977333       -0.3558653553        1.6390754548
 C         -2.1851717768       -0.0620620143        0.9966440728
 O         -1.1750697084       -0.4105053377        1.6349297180
 O         -3.5811343392        1.3505786838       -2.0217477243
 C         -0.9868404763        0.9108225126       -1.0091230391
 C         -0.0052322203       -0.2326670268       -0.9688579995
 C         -0.3727647474       -1.4509988444       -1.5358500128
 C          0.4962076077       -2.5240260128       -1.5317521043
 C          1.7612226039       -2.3995587671       -0.9840286806
 C          2.1357400442       -1.1906051367       -0.4118764886
 C          1.2529612253       -0.1193560653       -0.4016306870
 H          1.5651961275        0.7974263849        0.0697733823
 N          3.4037531600       -1.0317748057        0.1694233035
 S          4.1685893235        0.4633204264        0.0057490781
 O          3.7548125986        1.3292070380        1.0809561899
 O          3.9739855742        0.9723814499       -1.3336557739
 C          5.8724502695       -0.0110726271        0.2396959057
 C          6.6519027618       -0.2935192831       -0.8664691700
 C          7.9672728900       -0.6870197848       -0.6771018416
 C          8.4777237318       -0.7931687521        0.6080119163
 C          7.6836190347       -0.5059430506        1.7083630191
 C          6.3676284584       -0.1113680775        1.5261533975
 H          5.7153061301        0.1306508120        2.3491239771
 H          8.0846541772       -0.5866715278        2.7058065389
 H          9.5019468703       -1.0984861736        0.7529337149
 H          8.5880168396       -0.9076805444       -1.5304611357
 H          6.2155798144       -0.1867137336       -1.8466216238
 H          4.0287051557       -1.8021275793       -0.0235430601
 H          2.4456371001       -3.2344065034       -0.9881513341
 H          0.1926934895       -3.4633200004       -1.9694810796
 H         -1.3573045499       -1.5449617747       -1.9746472037
 H         -1.3198076978        1.0291077947       -2.0547996217
 C         -0.3645639992        2.2383651684       -0.6035159459
 C         -1.2050781775        3.3679075710       -0.0907094108
 C         -0.2518214387        2.6665759567        0.8276038343
 H          0.6474379180        3.1806221726        1.1361316731
 H         -0.6498967483        2.0035580184        1.5799587070
 H         -0.9681130192        4.3706596670       -0.4129992486
 H         -2.2623592840        3.1863011336        0.0369380612
 H          0.4623035887        2.5109769848       -1.2542617441
