  62
        -98.94608355
 C          1.4135479096        0.8494922137       -0.0931654853
 C          2.4958530795        0.8509651471        0.8249370116
 C          3.4541469027       -0.2549989196        0.7167685191
 C          3.2482899503       -1.2093329374       -0.2087893362
 C          4.1621778746       -2.3729877532       -0.4606709995
 C          5.2131509126       -2.0361505759       -1.5276920587
 C          5.9358420025       -0.7110943033       -1.2848860959
 H          6.6732417650       -0.5921746351       -2.0816262019
 H          5.2195358551        0.1075731289       -1.3840288848
 C          6.6343667099       -0.6098648923        0.0782817824
 H          6.7604726525       -1.6056890215        0.5046771372
 H          7.6321879823       -0.1916826054       -0.0697490319
 C          5.9209761977        0.2876783623        1.0911232783
 H          5.7083784681        1.2577256526        0.6349607281
 H          6.6010918358        0.4620104808        1.9291399073
 C          4.6143398656       -0.2676113521        1.6721106582
 H          4.7820231236       -1.2749062951        2.0595852592
 H          4.3207803812        0.3764456623        2.5063172881
 H          5.9406782462       -2.8490976597       -1.5637995516
 H          4.7148331391       -1.9825087496       -2.4983975644
 H          4.6505879798       -2.6511694176        0.4714840878
 H          3.5581289901       -3.2136866902       -0.8071486717
 O          2.1946401388       -1.1918916297       -1.0602785944
 C          1.2499037863       -0.1732908070       -1.0289062898
 O          0.3516843689       -0.3100507156       -1.8815946581
 H         -0.8093020753       -0.4031257669        0.4682548786
 C         -1.2369806540        0.3952251050        1.0531618000
 C         -0.7109670546        1.6750847217        0.9740828827
 C         -1.2689689308        2.6752625282        1.7636970192
 C         -2.3259699457        2.3970159572        2.6100496557
 C         -2.8543584261        1.1203982294        2.6787772002
 C         -2.3020896010        0.1118197290        1.8976907015
 N         -2.8010854685       -1.1966469344        1.9654637184
 S         -2.9073009495       -2.1386701063        0.5857223085
 O         -3.8459855733       -3.1801009777        0.9503550989
 O         -1.5990946662       -2.5873003069        0.1832039656
 C         -3.6540622944       -1.0665649052       -0.6276280884
 C         -2.9046248549       -0.5005994909       -1.6375174620
 C         -3.5285377658        0.3731792526       -2.5164652470
 C         -4.8751579921        0.6646907858       -2.3719849134
 C         -5.6149812092        0.0811152823       -1.3540454677
 C         -4.9998896019       -0.7904605059       -0.4718527808
 H         -5.5407415602       -1.2762434817        0.3241447213
 H         -6.6640415549        0.3045423506       -1.2458567325
 H         -5.3504416997        1.3478312490       -3.0581877372
 H         -2.9491356137        0.8212353341       -3.3084059974
 H         -1.8553995424       -0.7358792359       -1.7297950694
 H         -3.6165255540       -1.3076009608        2.5501680085
 H         -3.6777855327        0.8992812248        3.3402119593
 H         -2.7450327709        3.1806566154        3.2222535253
 H         -0.8578596261        3.6722618998        1.7228961760
 C          0.4297925786        1.9968055652        0.0341918966
 H          1.0027289098        2.8193827117        0.4858365673
 C         -0.1354356722        2.4771389953       -1.2893710994
 C         -0.5023111257        3.9188229064       -1.4654569800
 C          0.6953959182        3.3585697807       -2.1709838170
 H          0.6509794165        3.2052203262       -3.2385249387
 H          1.6756999633        3.6387446597       -1.8131347097
 H         -1.3782088255        4.1571730904       -2.0484307536
 H         -0.3275258545        4.5904712866       -0.6391983605
 H         -0.7574295229        1.7376964624       -1.7758652175
 O          2.6538142642        1.7496681008        1.6957299286
