  62
        -98.93806544
 C          2.0932959700        0.9223866637        0.0706983832
 C          2.4553568773       -0.3882975307       -0.3169483069
 C          3.7542273637       -0.8809992871        0.1806762549
 C          4.4974181758       -0.0889216594        0.9722866545
 C          5.8596621552       -0.3766658975        1.5402876593
 C          6.9609884132        0.1773586668        0.6204873354
 C          7.4101634999       -0.7712631506       -0.4901875423
 H          8.0896631758       -0.2135795369       -1.1388141441
 H          7.9783926650       -1.5941008222       -0.0512701075
 C          6.2839239967       -1.3568774781       -1.3459220235
 H          5.5592472686       -0.5763782954       -1.5847645240
 H          6.7201416901       -1.6925227591       -2.2888065775
 C          5.5725005392       -2.5431737890       -0.6781611990
 H          6.1592032070       -2.8744302529        0.1784785392
 H          5.5406098987       -3.3842182859       -1.3740843339
 C          4.1245713436       -2.2770054144       -0.2406367576
 H          3.8637327206       -2.9658962878        0.5700470335
 H          3.4465439712       -2.5042946338       -1.0694880227
 H          7.8341089364        0.4233618517        1.2281898516
 H          6.5943361476        1.1094826348        0.1830342563
 H          5.9125448422        0.1441117046        2.4986747617
 H          5.9890045710       -1.4409163423        1.7129567669
 O          4.1022063277        1.1627457056        1.3344119528
 C          2.9031256058        1.6958138895        0.9042140561
 O          2.6709522250        2.8478187100        1.3222101927
 O          1.7420150810       -1.1193352668       -1.0536671996
 C          0.7726900266        1.5334163338       -0.3706788548
 C         -0.3480449107        0.7556313798        0.2748121714
 C         -0.5882077778        0.9348021773        1.6348446851
 C         -1.5726076555        0.2112383540        2.2803589273
 C         -2.3372972772       -0.7094478529        1.5846687924
 C         -2.1062530556       -0.8937615810        0.2283367481
 C         -1.1258365716       -0.1542719836       -0.4225229860
 H         -0.9498335179       -0.3194547617       -1.4732298559
 N         -2.8749968033       -1.8271067530       -0.4835189965
 S         -4.5218306987       -1.8883318403       -0.2138608467
 O         -4.7947078825       -2.6249062974        0.9954280799
 O         -5.0839069816       -2.4381249076       -1.4274468476
 C         -5.0219055058       -0.1874501476       -0.0094751093
 C         -4.8105024839        0.6829982431       -1.0605608867
 C         -5.1651675436        2.0135439806       -0.9108028001
 C         -5.7212771189        2.4495799170        0.2823281501
 C         -5.9309539389        1.5627400537        1.3265734926
 C         -5.5771554227        0.2305770995        1.1824361181
 H         -5.7218979391       -0.4917252950        1.9692694090
 H         -6.3654651816        1.9041854027        2.2522675598
 H         -5.9935874194        3.4868721402        0.3973088881
 H         -5.0045865643        2.7051372376       -1.7222282512
 H         -4.3822570915        0.3110253799       -1.9772910678
 H         -2.6455403739       -1.8939412017       -1.4634561255
 H         -3.0949063017       -1.2983187161        2.0756670769
 H         -1.7447027909        0.3595247932        3.3355984914
 H          0.0195898096        1.6439842698        2.1801107811
 H          0.7614583387        2.5503193068        0.0440644106
 C          0.6761410905        1.6220541469       -1.8789356984
 C         -0.3464420279        2.5257112449       -2.4979338275
 C          1.1077393922        2.8818336536       -2.5646547453
 H          1.6167260855        2.8025192675       -3.5136911670
 H          1.4670898765        3.6900243182       -1.9443774657
 H         -0.8377820426        2.2067894000       -3.4045624687
 H         -0.9753909554        3.0940491539       -1.8298223282
 H          0.9012213748        0.6873230961       -2.3776450455
