  62
        -98.93888744
 C         -1.4633240926       -1.6495233094        0.2196923686
 C         -1.7741176546       -0.8433755282       -0.8983852211
 C         -2.7786030666        0.2254017336       -0.7007256356
 C         -3.3071330838        0.4102460873        0.5228536270
 C         -4.3097347018        1.4382234498        0.9798948345
 C         -3.7235356389        2.8512930415        1.1032756049
 C         -2.9186299121        3.3185347079       -0.1054961537
 H         -2.0584022476        2.6630820132       -0.2457964958
 H         -2.5290580881        4.3145870456        0.1199684011
 C         -3.7028173014        3.4034038376       -1.4128606127
 H         -3.0586315860        3.9019565277       -2.1418068570
 H         -4.5837706343        4.0318061142       -1.2667990794
 C         -4.1439177832        2.0645546095       -2.0138129725
 H         -4.3786893172        2.2425844941       -3.0671381853
 H         -5.0587423787        1.6999830931       -1.5533832949
 C         -3.0781578257        0.9740642592       -1.9777976963
 H         -2.1274785159        1.3858267835       -2.3370514772
 H         -3.3459086633        0.2000072225       -2.7068637831
 H         -3.0672680193        2.8773037789        1.9766632971
 H         -4.5467454010        3.5452360059        1.2825538904
 H         -5.1719770678        1.4415525083        0.3194143688
 H         -4.6500033957        1.1171103928        1.9671258812
 O         -2.9475407796       -0.3679718343        1.5843732825
 C         -2.0517934314       -1.4090263959        1.4660990882
 O         -1.8601899366       -2.0429386801        2.5213841802
 H          0.8369703414       -1.3091974597       -1.6320661394
 C          1.4448773778       -1.5036024065       -0.7610157628
 C          0.9328454195       -2.2865081937        0.2632955419
 C          1.7201624003       -2.5058865652        1.3875263152
 C          2.9852276337       -1.9511098419        1.4826778787
 C          3.4796041351       -1.1451965460        0.4723667694
 C          2.6944560329       -0.9151694264       -0.6495120281
 N          3.1432571489       -0.0126297806       -1.6370826321
 S          3.4801890197        1.5230680680       -1.0475469186
 O          3.0924482427        2.4437931208       -2.0934568716
 O          4.8648573123        1.5813555442       -0.6489802012
 C          2.4460326504        1.7183765692        0.3983788685
 C          3.0383169800        1.9795814285        1.6171051193
 C          2.2419453520        2.0730716481        2.7469961512
 C          0.8726896777        1.8877533976        2.6416913131
 C          0.2919782018        1.6276954645        1.4103653240
 C          1.0806536517        1.5487406241        0.2745618231
 H          0.6453720133        1.3471182498       -0.6922208767
 H         -0.7721541204        1.4687825395        1.3335171708
 H          0.2500694056        1.9386493984        3.5209976819
 H          2.6904126700        2.2776172612        3.7056696817
 H          4.1091480973        2.0961046503        1.6555953959
 H          2.5049229738        0.0530185828       -2.4183639468
 H          4.4474509132       -0.6747530050        0.5415363248
 H          3.5855796505       -2.1331156323        2.3606451732
 H          1.3243385957       -3.0974554388        2.1999127239
 C         -0.4796536780       -2.8120570913        0.1798390591
 H         -0.6758846284       -3.3943791204        1.0895177888
 C         -0.6752732679       -3.7174508774       -1.0199346398
 C         -0.1516782572       -5.1196832595       -0.9624984005
 C         -1.6285781118       -4.8683037706       -0.9193722839
 H         -2.2230996830       -5.1220103483       -1.7842345346
 H         -2.1432701794       -5.0108997151        0.0198882466
 H          0.3347410542       -5.4352371483       -0.0519264399
 H          0.2712942007       -5.5482910689       -1.8580649944
 H         -0.6248648593       -3.1994805333       -1.9683000587
 O         -1.2562730970       -0.9786222210       -2.0413034405
