  62
        -98.93402360
 C         -1.2188320702       -1.4014994592        0.6449497204
 C         -1.7069428299       -0.9466590895       -0.6038492998
 C         -2.8407757399        0.0083380806       -0.5615114603
 C         -3.2440260200        0.5045961909        0.6216365195
 C         -4.3892121700        1.4226644611        0.9983089791
 C         -5.3273746098        1.9667162609       -0.0748805713
 C         -4.7323859296        3.0982579306       -0.9163491914
 H         -5.3857708894        3.2793892904       -1.7719654216
 H         -4.7227582696        4.0067263108       -0.3089443717
 C         -3.3071576595        2.8655717704       -1.4100153511
 H         -2.9584397594        3.7861895802       -1.8853504413
 H         -2.6559186997        2.6769275806       -0.5563829210
 C         -3.1454452794        1.7339233001       -2.4205160308
 H         -2.1083332093        1.7374744799       -2.7689137306
 H         -3.7823464492        1.9235490699       -3.2873054310
 C         -3.4622098796        0.3271755703       -1.8938897205
 H         -4.5370658596        0.1619652203       -1.8627357006
 H         -3.0426244895       -0.3935071199       -2.6028816902
 H         -5.6805330498        1.1537480507       -0.7030286911
 H         -6.2033259699        2.3665111511        0.4425531485
 H         -4.9819708402        0.8513974313        1.7209340591
 H         -3.9553852201        2.2579431412        1.5574803089
 O         -2.6049252003        0.1769322812        1.7850036797
 C         -1.6244817804       -0.7935057089        1.8357627702
 O         -1.1882966006       -1.0159738486        2.9830246403
 H          1.8868106797       -1.0479303892        1.5573769209
 C          2.0339187498       -1.4367581095        0.5569498110
 C          1.0481237599       -2.2346805595       -0.0098092390
 C          1.2459558201       -2.7252156199       -1.2943119888
 C          2.3939490802       -2.4044193502       -1.9977394387
 C          3.3752254402       -1.6100478801       -1.4301987387
 C          3.1944823000       -1.1325706697       -0.1400739489
 N          4.1997040299       -0.3177644796        0.4391398311
 S          4.2140861801        1.2609028002       -0.1202603593
 O          4.4218586004        1.2437597898       -1.5441227593
 O          5.2027261800        1.9573067204        0.6698523307
 C          2.5805581201        1.8566650104        0.2716406102
 C          2.3755433499        2.5215908108        1.4643587500
 C          1.0840806399        2.8696275809        1.8246399597
 C          0.0239633900        2.5321524708        0.9972855696
 C          0.2464192502        1.8629643305       -0.1955654602
 C          1.5359719902        1.5180064903       -0.5645679599
 H          1.7372598204        0.9928230200       -1.4843940797
 H         -0.5772161497        1.5866204904       -0.8338599303
 H         -0.9834721900        2.7863633509        1.2892895793
 H          0.9039531698        3.3903048912        2.7514993195
 H          3.2280144498        2.7582617309        2.0810254801
 H          4.1547487498       -0.2977129794        1.4492543011
 H          4.2690875903       -1.3406174703       -1.9688252286
 H          2.5278583804       -2.7795143804       -3.0009704386
 H          0.4829406401       -3.3349149500       -1.7494897288
 C         -0.1978293503       -2.5186527492        0.7888506809
 H          0.0816878395       -2.4960700190        1.8540552409
 C         -0.7479177803       -3.9138796893        0.5218644811
 C         -2.0988409204       -4.3065276490        1.0406449610
 C         -1.8609355202       -4.2101584595       -0.4349390990
 H         -1.8058647301       -5.1266928496       -1.0041682687
 H         -2.3045665400       -3.3903147796       -0.9755585093
 H         -2.2205055206       -5.2828280689        1.4848641312
 H         -2.6896237805       -3.5339331589        1.5122365807
 H          0.0327344396       -4.6651386993        0.5966859315
 O         -1.2630816597       -1.3251634998       -1.7161042896
