  62
        -98.94928526
 C         -0.8577094089       -1.7542341383       -0.1749011345
 C         -2.0608636358       -1.6276875772        0.5568401646
 C         -3.0081164672       -0.6230201743        0.0615564948
 C         -2.6966438900        0.1094212106       -1.0232109986
 C         -3.5770613988        1.1429003275       -1.6739844870
 C         -3.5249948605        2.5294171819       -1.0183037014
 C         -4.2202288244        2.6381317000        0.3389228031
 H         -4.2987338637        3.7018359107        0.5729316597
 H         -5.2348964250        2.2456236598        0.2611236250
 C         -3.4839071120        1.9378840987        1.4898714052
 H         -3.4619804283        2.5967599837        2.3616266451
 H         -2.4405325427        1.7595195259        1.2157014625
 C         -4.1167423503        0.6202096178        1.9386085132
 H         -3.4819724966        0.1869882853        2.7161856656
 H         -5.0984142958        0.8173807988        2.3764325907
 C         -4.2824309873       -0.4200909655        0.8237444480
 H         -4.5472436749       -1.3748195532        1.2855938025
 H         -5.0863000673       -0.1227397094        0.1501100600
 H         -2.4813598409        2.8336617978       -0.9091022915
 H         -4.0041736508        3.2320238465       -1.7044011999
 H         -4.6080658671        0.7871659432       -1.6840937984
 H         -3.2333205313        1.2369474567       -2.7063089762
 O         -1.5241166423       -0.0370735146       -1.6951718535
 C         -0.5685288516       -0.9541705049       -1.2798958010
 O          0.4682699023       -0.9659025650       -1.9687702748
 O         -2.3354355323       -2.3294612337        1.5688796574
 C          0.1747274249       -2.7715893013        0.2680102339
 C          1.5032796094       -2.1139510035        0.5502631654
 C          2.7189705413       -2.7384008514        0.2959945279
 C          3.9112548615       -2.1041298717        0.5973437087
 C          3.9199804888       -0.8345228114        1.1451839096
 C          2.7098104922       -0.2031716798        1.4067751520
 C          1.5178020804       -0.8485009487        1.1214949742
 H          0.5870295697       -0.3458500335        1.3400983385
 N          2.6698070554        1.0863076587        1.9668592481
 S          1.6237885854        2.2157207928        1.3219916652
 O          2.1388678857        3.4852344583        1.7949261916
 O          0.2631368866        1.9199375222        1.6951381878
 C          1.8089250105        2.1327847631       -0.4490962407
 C          3.0727409084        2.0658860749       -1.0008623143
 C          3.1985447690        2.0336733069       -2.3795286471
 C          2.0674175703        2.0763389153       -3.1796498987
 C          0.8069630531        2.1545796205       -2.6114966054
 C          0.6774566230        2.1825764620       -1.2333294522
 H         -0.2844290069        2.2242660850       -0.7469154680
 H         -0.0759069990        2.1762686415       -3.2298850900
 H          2.1673952868        2.0436916568       -4.2531195715
 H          4.1778933368        1.9707533260       -2.8262221278
 H          3.9382799375        2.0399004877       -0.3591300668
 H          3.5744294231        1.4957419353        2.1507393955
 H          4.8503056742       -0.3372123260        1.3737866234
 H          4.8470742616       -2.6019221381        0.3944672748
 H          2.7317764251       -3.7239867532       -0.1395842497
 H         -0.2080728924       -3.1857289639        1.2138349661
 C          0.2705420859       -3.8927816822       -0.7483298478
 C          0.5589256466       -5.2974308967       -0.3116617992
 C         -0.8135179903       -4.9267125722       -0.7844106780
 H         -1.1485017758       -5.2913250126       -1.7437876479
 H         -1.6025664652       -4.8392286214       -0.0515693216
 H          1.1664335959       -5.9211974056       -0.9500716703
 H          0.6972401402       -5.4761709852        0.7440365473
 H          0.6735855856       -3.5561206585       -1.6970192107
