  62
        -98.94379809
 C         -1.6869492538       -1.3559683228       -0.2398991288
 C         -2.7287923288       -0.6815305334        0.4315817622
 C         -3.1169360491        0.6413324650       -0.0938281502
 C         -2.4694002900        1.1259625405       -1.1698053523
 C         -2.6605632826        2.4525299915       -1.8559198068
 C         -2.0073884579        3.6096164356       -1.0846869090
 C         -2.2621520757        3.5992660952        0.4199694000
 H         -1.8698795850        2.6693158842        0.8372826914
 H         -1.6740348433        4.4099175591        0.8598265927
 C         -3.7174337615        3.7945910178        0.8403091716
 H         -3.7309636419        3.8555499817        1.9316539178
 H         -4.0741111860        4.7508731154        0.4504000282
 C         -4.6998894852        2.7007844351        0.4146899304
 H         -4.9730435342        2.8034657734       -0.6320756627
 H         -5.6178727859        2.8486321827        0.9912202279
 C         -4.2329013128        1.2770629438        0.6995571998
 H         -5.0908729579        0.6009439826        0.5981930569
 H         -3.9313950263        1.2040145286        1.7511407493
 H         -2.3549993663        4.5520768311       -1.5123919411
 H         -0.9256443256        3.5450885050       -1.2287268657
 H         -2.1792879342        2.3720317330       -2.8332898728
 H         -3.7170262068        2.6430347617       -2.0197383574
 O         -1.4707974661        0.4365871459       -1.7894623582
 C         -1.0315778953       -0.7876357988       -1.3296840178
 O         -0.0743416313       -1.2675208557       -1.9696823311
 O         -3.3126479787       -1.1585928804        1.4447372114
 C         -1.1850047792       -2.6853331683        0.2942343720
 C          0.2813289170       -2.5598455640        0.6288146220
 C          1.2343935238       -3.5169848004        0.3053798971
 C          2.5700265263       -3.3048240207        0.6034840897
 C          2.9859751611       -2.1302358334        1.2034465818
 C          2.0371130355       -1.1728278971        1.5431538378
 C          0.6976657905       -1.4092996626        1.2865518336
 H         -0.0275219615       -0.6574537831        1.5613809039
 N          2.3988866013        0.0561684750        2.1343561660
 S          2.0693716980        1.4462169474        1.2534370862
 O          2.5572674550        2.5337670037        2.0748266864
 O          0.6762020855        1.4889454299        0.8972755616
 C          3.1006212317        1.2989111588       -0.1950037449
 C          4.3193648681        1.9509647859       -0.2049877082
 C          5.1592892884        1.7902861247       -1.2945034202
 C          4.7724346235        0.9742605306       -2.3473280373
 C          3.5489303950        0.3234756064       -2.3191955704
 C          2.7001908539        0.4827786765       -1.2337814075
 H          1.7421113324       -0.0128636253       -1.1986858331
 H          3.2383403506       -0.3131158369       -3.1322092560
 H          5.4261714397        0.8448590535       -3.1954414295
 H          6.1100730740        2.2979829704       -1.3186317063
 H          4.5741871359        2.5768846693        0.6350851949
 H          3.3589421641        0.0886453732        2.4504832736
 H          4.0313766720       -1.9519847796        1.4058434617
 H          3.2998708290       -4.0563228371        0.3437924493
 H          0.9332780148       -4.4256069736       -0.1898983100
 H         -1.7440805866       -2.8604720105        1.2257035100
 C         -1.4892301369       -3.8047635740       -0.6789970323
 C         -1.7212353936       -5.1993846991       -0.1809080277
 C         -2.8688852973       -4.3887562376       -0.7010599158
 H         -3.3014974686       -4.6541529900       -1.6539325580
 H         -3.5829592330       -3.9947001877        0.0074035590
 H         -1.3685318941       -6.0259969307       -0.7790134669
 H         -1.6621003493       -5.3663744695        0.8839697396
 H         -0.9849539026       -3.6750840677       -1.6301291478
