  62
        -98.94946112
 C         -1.0292957024       -1.7375711522        0.1045799430
 C         -1.6713697061       -0.9769936609        1.1101567905
 C         -2.8456940020       -0.2083097824        0.6833253146
 C         -3.2369866197       -0.2496587150       -0.6032833367
 C         -4.4145619970        0.4774731415       -1.1933536703
 C         -4.1193996930        1.9389931834       -1.5581480473
 C         -4.0269918448        2.9002913578       -0.3723581973
 H         -4.0622553506        3.9126925557       -0.7798554448
 H         -4.9013608979        2.7744279973        0.2678213067
 C         -2.7469062037        2.7546312555        0.4620463618
 H         -2.3402611795        3.7464746024        0.6767787777
 H         -1.9885443745        2.2317083282       -0.1268921254
 C         -2.9409011694        2.0466684843        1.8033308651
 H         -1.9668777536        1.9676031849        2.2923743512
 H         -3.5867520091        2.6536392456        2.4423890130
 C         -3.5442878365        0.6396924846        1.7041844588
 H         -3.4268287392        0.1500547944        2.6744486283
 H         -4.6074404942        0.7053828098        1.4729847406
 H         -4.9234825904        2.2806352918       -2.2145401559
 H         -3.1856938444        1.9775435471       -2.1254946425
 H         -4.6839113950       -0.0583211597       -2.1062181939
 H         -5.2585570721        0.4358122841       -0.5036844079
 O         -2.5992604431       -1.0001467107       -1.5400307393
 C         -1.4751935531       -1.7480409605       -1.2177038586
 O         -0.9822529850       -2.3716474382       -2.1772439363
 H          0.5926886818       -0.1131025271       -0.6721476225
 C          1.4608300209       -0.7426498318       -0.7766842156
 C          1.4280755431       -2.0412562922       -0.2928614877
 C          2.5488556186       -2.8426414881       -0.4849699936
 C          3.6575054812       -2.3492517179       -1.1498394116
 C          3.6856525968       -1.0491742235       -1.6228344721
 C          2.5708591340       -0.2404757541       -1.4371662984
 N          2.5414225808        1.0788345551       -1.9080058912
 S          1.6384840712        2.2437240903       -1.1242410613
 O          0.2314554869        2.0462592163       -1.3672060540
 O          2.1907182228        3.4942821840       -1.6003973042
 C          2.0255053775        2.0332566110        0.6037024578
 C          3.3102980454        2.3310790644        1.0159927368
 C          3.6561341303        2.1191348925        2.3402018776
 C          2.7201100712        1.6045063472        3.2254182243
 C          1.4333842256        1.3170478015        2.7987669143
 C          1.0810357302        1.5370629758        1.4769268490
 H          0.0870702304        1.3183604511        1.1205174630
 H          0.6980025058        0.9040471631        3.4715831696
 H          2.9928183198        1.4274911520        4.2538299345
 H          4.6542135096        2.3481043275        2.6773183866
 H          4.0085224163        2.7339449452        0.3004906275
 H          3.4145568605        1.4357752240       -2.2649192417
 H          4.5517932470       -0.6667698381       -2.1403271915
 H          4.5169707692       -2.9850827697       -1.2981729868
 H          2.5488569761       -3.8565380512       -0.1191767313
 C          0.2134487120       -2.5255604275        0.4649057046
 H          0.3852539079       -2.3241752306        1.5341487217
 C         -0.0245243258       -4.0132044956        0.2863919038
 C          0.5665560705       -5.0036372660        1.2437448996
 C         -0.9053946930       -4.7262976189        1.2672170912
 H         -1.5838165801       -5.4807038022        0.8981671877
 H         -1.3037808261       -4.1447123747        2.0858681632
 H          1.1615785782       -4.6210612873        2.0593302236
 H          0.9003973326       -5.9553573695        0.8584438447
 H         -0.1087930059       -4.2953616735       -0.7570782715
 O         -1.2823513337       -0.9424796898        2.3091295362
