  62
        -98.94138710
 C         -2.3184999426       -1.1047729516       -0.6031241599
 C         -3.5811824475       -0.8585305738       -0.0048725917
 C         -4.2245530131        0.4119540182       -0.3528628375
 C         -3.6136730541        1.2569729239       -1.2029199473
 C         -4.1482130521        2.5832507553       -1.6705622756
 C         -3.8594352763        3.7432943826       -0.7080085369
 C         -4.6817040098        3.7369460329        0.5812688773
 H         -4.5388063474        4.7093728702        1.0566608330
 H         -5.7402277171        3.6464422124        0.3354851923
 C         -4.2873211254        2.6386998477        1.5789387023
 H         -3.2970097683        2.2520327722        1.3246738591
 H         -4.2114814663        3.0672947400        2.5809471625
 C         -5.2712428682        1.4711310146        1.6595980252
 H         -4.8735652606        0.7386065153        2.3666678665
 H         -6.2293058792        1.8263710340        2.0453757655
 C         -5.5166646041        0.7562588490        0.3241957777
 H         -6.1348260846        1.3748048035       -0.3258721686
 H         -6.0453357202       -0.1780450603        0.5277510959
 H         -2.7948701304        3.7360565249       -0.4610390411
 H         -4.0700246501        4.6719266281       -1.2435165184
 H         -5.2226895923        2.5069763482       -1.8388963674
 H         -3.6598714724        2.7970393415       -2.6236811627
 O         -2.4085071922        0.9807170298       -1.7654306424
 C         -1.7166447970       -0.1833897259       -1.4603310704
 O         -0.6099564963       -0.2688215793       -2.0280462388
 O         -4.1451533959       -1.6669220395        0.7791845512
 C         -1.5964428455       -2.3874275110       -0.2200749047
 C         -0.4681014767       -2.0109386871        0.7083212494
 C         -0.7141276437       -1.8921869991        2.0731703036
 C          0.2762920366       -1.4553907343        2.9333596136
 C          1.5291198334       -1.1185003903        2.4509906794
 C          1.7800293156       -1.2244903029        1.0898120203
 C          0.7916211507       -1.6842675902        0.2301533035
 H          0.9922343429       -1.7421636523       -0.8281329878
 N          3.0477469426       -0.8658798284        0.5811658520
 S          3.5954042983        0.6701791352        1.0322994935
 O          4.1366420367        0.5832351435        2.3662381703
 O          2.5514648769        1.6535914425        0.8412000699
 C          4.9148796055        0.9208723372       -0.1381046928
 C          4.6225545072        1.5002369836       -1.3583407365
 C          5.6431141083        1.6698354550       -2.2807153004
 C          6.9299354163        1.2561454764       -1.9696836828
 C          7.2068182149        0.6746249382       -0.7414357267
 C          6.1913703018        0.5031150451        0.1860082550
 H          6.3587479064        0.0638791237        1.1554422980
 H          8.2087650493        0.3556296295       -0.5037993964
 H          7.7215814515        1.3902692327       -2.6898316502
 H          5.4297854026        2.1229027024       -3.2356424774
 H          3.6088731499        1.8133380066       -1.5555233159
 H          3.0588770745       -0.9378509945       -0.4287217886
 H          2.3035530609       -0.7521406661        3.1052664717
 H          0.0707000300       -1.3672860943        3.9897910756
 H         -1.7007461508       -2.1255872818        2.4486116831
 H         -2.3285989965       -2.9707774252        0.3539136392
 C         -1.1603147906       -3.2000517482       -1.4203881915
 C         -0.7361621551       -4.6235292171       -1.2209085274
 C         -2.0340911974       -4.3170115542       -1.9037887468
 H         -2.1111444253       -4.4855354396       -2.9674523236
 H         -2.9517664800       -4.5029664161       -1.3653443898
 H          0.0796426237       -5.0067436600       -1.8142639574
 H         -0.7720019921       -5.0159087302       -0.2159040986
 H         -0.6449960770       -2.6181059239       -2.1738675306
