  62
        -98.93809428
 C          0.4575982303       -2.0769635269        0.7413064718
 C          0.9335226157       -0.8675825442        1.3064860771
 C          2.3437120803       -0.5380727072        1.0266543132
 C          3.0745167116       -1.3516231309        0.2458811190
 C          4.4702271405       -1.0776096740       -0.2372490345
 C          4.4243019653       -0.0498899207       -1.3866971932
 C          5.1031989253        1.2816651467       -1.0668121356
 H          6.1867295196        1.1483902340       -1.1043306109
 H          4.8273713800        1.9842017724       -1.8564530258
 C          4.7495411760        1.8950869784        0.2908601015
 H          5.3281939671        1.4064115373        1.0765365829
 H          5.0765520043        2.9368614550        0.2639045400
 C          3.2650352719        1.8554785948        0.6774846881
 H          2.6354296540        1.7940010980       -0.2127581725
 H          3.0266838145        2.7976200569        1.1779558100
 C          2.8851319054        0.7199384666        1.6478021414
 H          3.7457032378        0.4751130598        2.2770015264
 H          2.0837369079        1.0734602948        2.3035850204
 H          4.8982632647       -0.4728062741       -2.2741997341
 H          3.3778121765        0.1313122559       -1.6461454025
 H          5.0819506581       -0.7091188039        0.5832626249
 H          4.8864203601       -2.0224036579       -0.5877962512
 O          2.5836982241       -2.5046544405       -0.2791045247
 C          1.2715007271       -2.8839131080       -0.0563892532
 O          0.9500142167       -3.9571522372       -0.6076252288
 H         -0.9994520743       -0.0656714558       -0.1577322238
 C         -1.6136295066       -0.7275935096       -0.7454901751
 C         -1.7379339903       -2.0558165168       -0.3638729241
 C         -2.5226621911       -2.9031941803       -1.1354648820
 C         -3.1507313344       -2.4287124057       -2.2744183987
 C         -3.0043544793       -1.1101120010       -2.6656594467
 C         -2.2260268291       -0.2524765193       -1.8941689334
 N         -2.0803932068        1.0945130852       -2.2377086060
 S         -0.8730919545        2.0523694748       -1.5985615364
 O         -0.9443063055        3.2669323550       -2.3867767683
 O          0.4124968580        1.3908034691       -1.6068028803
 C         -1.4187665151        2.4054799899        0.0583520427
 C         -2.7698411000        2.4026723139        0.3433906443
 C         -3.1812548835        2.7027789682        1.6314947335
 C         -2.2425095442        3.0069534910        2.6050955345
 C         -0.8917712952        3.0170006927        2.2993270914
 C         -0.4735249304        2.7135009432        1.0141634905
 H          0.5685780249        2.6919133748        0.7422745699
 H         -0.1603504020        3.2475175263        3.0570882438
 H         -2.5651796186        3.2340043692        3.6090797740
 H         -4.2320656960        2.6921467355        1.8730982175
 H         -3.4758468982        2.1561995551       -0.4323976258
 H         -2.3868560956        1.3697768636       -3.1573573573
 H         -3.4799070560       -0.7459752234       -3.5632731939
 H         -3.7516629576       -3.0967528781       -2.8725867682
 H         -2.6168854430       -3.9416157573       -0.8541331465
 C         -0.9863939326       -2.5462057187        0.8475925148
 H         -0.9461969700       -3.6460118906        0.7898022585
 C         -1.6630814596       -2.1832039950        2.1601062427
 C         -2.6793885130       -1.0929745647        2.2912122459
 C         -3.1084264301       -2.5253171650        2.3735226768
 H         -3.4087970287       -2.9244301461        3.3303674287
 H         -3.6506300949       -2.9326653914        1.5334365119
 H         -2.6564193882       -0.4986864517        3.1913344656
 H         -2.9393236618       -0.5280658731        1.4098285586
 H         -0.9985839878       -2.3233958631        3.0059764019
 O          0.2407774642       -0.0898935973        2.0099103815
