  62
        -98.94480360
 C         -1.6923327200       -1.0337110278       -0.6752217306
 C         -1.6565182092        0.0874646730        0.1897745528
 C         -2.9238992068        0.4171034782        0.8562700304
 C         -4.0110721821       -0.3474737738        0.6510916469
 C         -5.3674607483       -0.1455285731        1.2702031442
 C         -6.2418714172        0.8786693183        0.5335203364
 C         -5.8230493946        2.3391397136        0.7082361509
 H         -6.6412471913        2.9538622526        0.3277313042
 H         -5.7166373390        2.5608103137        1.7706504299
 C         -4.5336232985        2.7222701685       -0.0313355042
 H         -4.3107819200        1.9677302409       -0.7890660776
 H         -4.6826508251        3.6689952206       -0.5553316981
 C         -3.3112756682        2.8920643135        0.8711634272
 H         -2.4489609099        3.1240669221        0.2412979694
 H         -3.4689775647        3.7339795172        1.5490004682
 C         -2.9668049448        1.6515046709        1.7057239854
 H         -3.6855381538        1.5316635752        2.5163376373
 H         -1.9728283191        1.7908591314        2.1394049861
 H         -6.2529216496        0.6273361438       -0.5295156784
 H         -7.2607851956        0.7680325268        0.9116454704
 H         -5.2542023519        0.1528274438        2.3128970590
 H         -5.8708793400       -1.1142175207        1.2386395337
 O         -3.9938188398       -1.4394304674       -0.1589269095
 C         -2.8456418169       -1.8023417355       -0.8433060196
 O         -2.9759248841       -2.8162833911       -1.5590126399
 O         -0.6328766998        0.7889203153        0.3945527388
 C         -0.4478186991       -1.4799024488       -1.4267171904
 C          0.5432315172       -2.0246257278       -0.4261099049
 C          0.2462759391       -3.2168683790        0.2306102027
 C          1.1158710476       -3.7402366711        1.1672410221
 C          2.2895746925       -3.0759404947        1.4830606124
 C          2.5906486315       -1.8822766157        0.8413511250
 C          1.7262403938       -1.3735933186       -0.1193044920
 H          1.9805612293       -0.4561395433       -0.6183022415
 N          3.7775244899       -1.1802233225        1.1224837144
 S          3.6424068533        0.4329609145        1.5906535816
 O          4.9133608589        0.7212745954        2.2248140179
 O          2.4718346696        0.6445669543        2.4091436968
 C          3.5482603668        1.3451301672        0.0661221006
 C          2.3922161419        2.0227360513       -0.2676128388
 C          2.3552576636        2.7221766428       -1.4645026200
 C          3.4632672074        2.7318687527       -2.2978492740
 C          4.6168208656        2.0477616768       -1.9439401395
 C          4.6633531169        1.3481129703       -0.7491563645
 H          5.5402236250        0.8093109145       -0.4309974418
 H          5.4757050433        2.0566739020       -2.5955057080
 H          3.4248993766        3.2748042641       -3.2293345225
 H          1.4553425276        3.2489066814       -1.7410534276
 H          1.5367195296        1.9634143742        0.3875935222
 H          4.3957980392       -1.6646308900        1.7589523344
 H          2.9651138748       -3.4782901345        2.2233932454
 H          0.8764145864       -4.6687136523        1.6639268419
 H         -0.6788549192       -3.7251701107       -0.0059683505
 H         -0.7673074683       -2.3119423239       -2.0697115131
 C          0.1058202857       -0.3700668310       -2.2947442689
 C          1.0912233406       -0.6949046653       -3.3757500346
 C         -0.3049051544       -0.2831466428       -3.7322875044
 H         -0.4614574974        0.6936381756       -4.1643938245
 H         -0.9818674049       -1.0380963332       -4.1053632841
 H          1.8968651441       -0.0007332177       -3.5612022806
 H          1.3623710688       -1.7314665070       -3.5068971357
 H          0.2336101766        0.5621819306       -1.7592778971
