  62
        -98.93753786
 C          1.7664471389       -0.4058179829       -0.3518452514
 C          2.9317242136       -0.4544891227       -1.1479948321
 C          4.2214670945       -0.5620189673       -0.4382450793
 C          4.2157496616       -0.6112459705        0.9071977231
 C          5.3961832859       -0.6792734725        1.8392418176
 C          6.1140741489        0.6724415343        1.9860947182
 C          6.3253943826        1.4346219252        0.6804458330
 H          5.3586421507        1.5990559812        0.2009576364
 H          6.7331708591        2.4173976875        0.9316953484
 C          7.2788779819        0.7741327975       -0.3124043055
 H          7.3972006167        1.4607073686       -1.1547703833
 H          8.2578339515        0.6540384008        0.1571484109
 C          6.8357661290       -0.5823412832       -0.8640584481
 H          7.4795770861       -0.8117978790       -1.7182949520
 H          6.9968544959       -1.3726967049       -0.1359667019
 C          5.4004696575       -0.6240303404       -1.3794744530
 H          5.2543513336        0.1902196190       -2.0986186825
 H          5.2659024236       -1.5455057641       -1.9590759831
 H          5.5124205178        1.3035312571        2.6447247051
 H          7.0770370424        0.5013390765        2.4701227606
 H          5.0070037740       -0.9732372295        2.8164283075
 H          6.0857322769       -1.4515845946        1.5116792709
 O          3.0630688370       -0.5610236026        1.6347609487
 C          1.8192352738       -0.4578990345        1.0404429923
 O          0.8639536709       -0.4247090589        1.8383970258
 O          2.9046537582       -0.4002321361       -2.4083851557
 C          0.4130988909       -0.2954464096       -1.0277793667
 C         -0.3149963154        0.9403561648       -0.5606431694
 C          0.3773004605        2.1463683973       -0.4804492589
 C         -0.2539494908        3.2973438210       -0.0527045652
 C         -1.5953709148        3.2762551515        0.2874757776
 C         -2.3001008443        2.0831578445        0.1968349434
 C         -1.6590472739        0.9250175990       -0.2232187472
 H         -2.2244492479        0.0107306963       -0.2874757753
 N         -3.6558482195        2.0241124376        0.5481067601
 S         -4.7169470709        1.0808935445       -0.3331719613
 O         -4.3660386377        1.0477663642       -1.7337892284
 O         -6.0246042072        1.6194522894       -0.0226917084
 C         -4.5893010344       -0.5486538780        0.3722089443
 C         -4.3881749108       -0.6841411338        1.7313626288
 C         -4.3354553389       -1.9575958527        2.2752659457
 C         -4.4925959035       -3.0672480519        1.4587585926
 C         -4.7001278958       -2.9141169719        0.0967620370
 C         -4.7494032955       -1.6431818170       -0.4544303068
 H         -4.8968836072       -1.4781971300       -1.5100031857
 H         -4.8216720901       -3.7782874029       -0.5371257738
 H         -4.4511024764       -4.0568722661        1.8858918819
 H         -4.1693883254       -2.0803194033        3.3334811100
 H         -4.2642561844        0.1975802120        2.3376518615
 H         -4.0684667318        2.9045177669        0.8190550442
 H         -2.0910061891        4.1749162020        0.6222015554
 H          0.2998476472        4.2220419555        0.0117920706
 H          1.4238558633        2.1667433184       -0.7529379800
 H          0.6292047167       -0.1773289254       -2.1006599090
 C         -0.3741027045       -1.5738715530       -0.8283037020
 C         -1.3705598612       -2.0209424658       -1.8544126737
 C         -0.0717131564       -2.7524192207       -1.7027061410
 H         -0.0825437892       -3.7378213805       -1.2621132154
 H          0.6834163829       -2.6222005568       -2.4642155541
 H         -2.2735349551       -2.5049882152       -1.5143143017
 H         -1.5082348775       -1.3962780909       -2.7243674370
 H         -0.5928126003       -1.7671681517        0.2162243722
