  62
        -98.94325224
 C         -2.5139976724       -1.0094744600       -0.1639652836
 C         -3.6636117984       -0.8937304639        0.6537045715
 C         -4.7260101301       -0.0214086323        0.1418569183
 C         -4.5697296275        0.5947821704       -1.0442128100
 C         -5.5719422176        1.4986079119       -1.7097710803
 C         -5.5208000403        2.9534614321       -1.2231527784
 C         -6.0756556702        3.1897746445        0.1821286353
 H         -6.1807530935        4.2692424536        0.3076330968
 H         -7.0730759022        2.7552594691        0.2558189268
 C         -5.1902184357        2.6461164915        1.3121221897
 H         -4.1854796439        2.4555834863        0.9276232625
 H         -5.0947043053        3.4012322797        2.0956545437
 C         -5.7171411505        1.3722872722        1.9729616388
 H         -4.9963007611        1.0555405013        2.7311482058
 H         -6.6628909904        1.5844641185        2.4765280274
 C         -5.9312778821        0.2013473935        1.0048912563
 H         -6.8130726005        0.3783016025        0.3895460002
 H         -6.0907563954       -0.7054906411        1.5935139568
 H         -4.4860958859        3.3007694085       -1.2696962784
 H         -6.1044419851        3.5523366209       -1.9260792110
 H         -6.5768317057        1.1005170359       -1.5661574675
 H         -5.3413591291        1.4846374403       -2.7771430115
 O         -3.4544503590        0.4451024818       -1.8072967273
 C         -2.3941084330       -0.3430449762       -1.3832736424
 O         -1.4298676728       -0.3719471516       -2.1710810370
 O         -3.7943835938       -1.4902975234        1.7561702285
 C         -1.3663283866       -1.8846214269        0.3065508199
 C         -0.1177362722       -1.0518061018        0.4584427424
 C         -0.1548023459        0.0567139033        1.3013156048
 C          0.9598536218        0.8536579498        1.4721553165
 C          2.1389722100        0.5652092621        0.8062402961
 C          2.1911746276       -0.5420488672       -0.0275547418
 C          1.0689135295       -1.3459050494       -0.1924646457
 H          1.1272661436       -2.2010687820       -0.8475861081
 N          3.3803913284       -0.8368321895       -0.7126618639
 S          4.8299404686       -0.8366804076        0.1292379438
 O          5.7031739416       -1.7092231321       -0.6249652939
 O          4.6332999827       -1.1721532191        1.5203904981
 C          5.4173073436        0.8376132538       -0.0186716260
 C          5.7252219197        1.5617865463        1.1162562953
 C          6.1928262431        2.8593596144        0.9771835644
 C          6.3446051579        3.4061748042       -0.2877366639
 C          6.0334082637        2.6646180622       -1.4178476726
 C          5.5662286945        1.3668353932       -1.2855978221
 H          5.3167384139        0.7575718171       -2.1383132356
 H          6.1527723742        3.0932872134       -2.3999156328
 H          6.7080584045        4.4161334005       -0.3938187362
 H          6.4359530925        3.4373030291        1.8543349990
 H          5.5875935180        1.0969694760        2.0796859223
 H          3.3137986200       -1.6329750093       -1.3295665031
 H          3.0112563790        1.1857749516        0.9303270787
 H          0.9124152787        1.7105818376        2.1270637622
 H         -1.0761881841        0.2840917409        1.8203506695
 H         -1.6612510846       -2.2387676271        1.3054686472
 C         -1.2044670124       -3.0835170278       -0.6033652736
 C         -0.5614923459       -4.3356091442       -0.0879556907
 C         -2.0365921708       -4.3032480554       -0.3500514207
 H         -2.4226120152       -4.8491950880       -1.1977590270
 H         -2.7078544476       -4.2791385322        0.4958193351
 H          0.0645931130       -4.9087470199       -0.7555038457
 H         -0.2273459410       -4.3391066035        0.9387293410
 H         -1.0307603669       -2.8048418386       -1.6369067969
