  62
        -98.94033893
 C          2.0244920107        1.0889860900        0.4269480808
 C          2.6671144207        0.1348112198        1.2576772607
 C          4.0876641007       -0.1092544000        0.9919257908
 C          4.7061424208        0.5718093702        0.0104257310
 C          6.1577213808        0.4583277004       -0.3685859289
 C          6.4653572110       -0.7066789694       -1.3191447191
 C          6.4050665810       -2.0969151895       -0.6850579094
 H          6.8515903912       -2.7935106894       -1.3974202495
 H          7.0214590009       -2.1121595796        0.2143924107
 C          4.9869032910       -2.5786080697       -0.3479601696
 H          4.2567288510       -1.9742102796       -0.8914526296
 H          4.8619698011       -3.6096092896       -0.6868068398
 C          4.6432632609       -2.5473897500        1.1414095303
 H          3.6060372609       -2.8717953101        1.2596441602
 H          5.2801481909       -3.2532345801        1.6793663603
 C          4.7853435407       -1.1659408801        1.7936585406
 H          5.8386722607       -0.9157304901        1.9190504108
 H          4.3135876206       -1.2017931603        2.7787491206
 H          5.7732249711       -0.6613577393       -2.1631438892
 H          7.4744287510       -0.5519866092       -1.7081288190
 H          6.7652144907        0.3647382103        0.5320757011
 H          6.4217722408        1.3912699705       -0.8712095487
 O          4.0607270108        1.4850157903       -0.7589756289
 C          2.7045547908        1.7492473402       -0.5973518090
 O          2.2599159808        2.5796512203       -1.4100658889
 O          2.0768548006       -0.4759031004        2.1893245605
 C          0.5498593407        1.3326395598        0.6967954607
 C         -0.2830886792        0.4031968899       -0.1473569996
 C         -0.2032315691        0.4278889802       -1.5368756296
 C         -0.9736779989       -0.4310752297       -2.2990121298
 C         -1.8368004389       -1.3298622499       -1.6950579701
 C         -1.9187351491       -1.3652182402       -0.3102922101
 C         -1.1469707392       -0.4995455303        0.4540906002
 H         -1.2064213393       -0.5401731505        1.5333413501
 N         -2.8205601891       -2.2609623604        0.3041272397
 S         -4.4385777890       -1.9787228604       -0.0452384405
 O         -5.1848683191       -2.6421807807        0.9990804893
 O         -4.7119324589       -2.4020749302       -1.3943203706
 C         -4.5941778792       -0.2078305304        0.0919275399
 C         -4.4608058691        0.5761525298       -1.0363856400
 C         -4.4678797892        1.9548464598       -0.8971651297
 C         -4.6052626094        2.5225175695        0.3598551204
 C         -4.7461299395        1.7209970293        1.4826694102
 C         -4.7337657393        0.3419565393        1.3509672400
 H         -4.8413549594       -0.3157851009        2.1988658198
 H         -4.8557728496        2.1662863791        2.4586455803
 H         -4.5981274395        3.5955350495        0.4653917506
 H         -4.3589536092        2.5815686099       -1.7675647996
 H         -4.3572617490        0.0967348900       -1.9958045600
 H         -2.6965359692       -2.3213121305        1.3052423997
 H         -2.4532109688       -1.9985414198       -2.2741453403
 H         -0.9022383388       -0.4013163995       -3.3758223698
 H          0.4686802109        1.1302745703       -2.0069051794
 H          0.4126991206        1.0342872396        1.7478780206
 C          0.1364815806        2.7936172198        0.5748295009
 C         -0.9420967994        3.2741658499       -0.3464245391
 C         -1.1867678395        3.2327946396        1.1295318009
 H         -1.2367575796        4.1611531195        1.6775490010
 H         -1.8457218495        2.4616996695        1.5005336407
 H         -0.7966917794        4.2309234800       -0.8240183889
 H         -1.4514014293        2.5507885000       -0.9634371693
 H          0.9721566405        3.4687737898        0.7218901911
