  62
        -98.94311731
 C         -1.4911109084       -1.3629849279       -0.3256750892
 C         -1.5811394908        0.0212712066       -0.6180058639
 C         -2.6724244294        0.7441183439        0.0529395760
 C         -3.4775609634        0.1048991787        0.9183066564
 C         -4.6083701973        0.7166812916        1.7003380037
 C         -5.9257036942        0.8216844445        0.9194555457
 C         -5.9540691148        1.8931337477       -0.1713715030
 H         -6.9946870395        2.0057744147       -0.4820220749
 H         -5.6349113465        2.8467078708        0.2504989005
 C         -5.1032231031        1.5633860058       -1.4057090648
 H         -4.8709040959        0.4959852447       -1.4120529496
 H         -5.6783541601        1.7723020893       -2.3105329368
 C         -3.7981953385        2.3535392967       -1.5050023370
 H         -4.0209193862        3.4155281129       -1.6298805103
 H         -3.2585135490        2.0152416326       -2.3929804513
 C         -2.8700830293        2.1887093106       -0.2946223902
 H         -1.8914326484        2.6063919778       -0.5448006892
 H         -3.2658922554        2.7335194084        0.5625605848
 H         -6.1482733018       -0.1530973111        0.4792783293
 H         -6.7137594702        1.0479821481        1.6414267231
 H         -4.7711423158        0.0703672810        2.5657908773
 H         -4.3130862968        1.7041004786        2.0573731749
 O         -3.3360949089       -1.2177087335        1.2033934637
 C         -2.3547502328       -1.9748889588        0.5864215625
 O         -2.3532017966       -3.1772787024        0.9232842914
 H          0.7277791436       -0.2630622661        0.4714857149
 C          1.2533233525       -1.1944534281        0.5969588764
 C          0.7873782353       -2.3391429190       -0.0330552369
 C          1.4628684670       -3.5370012220        0.1719519409
 C          2.5841771689       -3.5798304481        0.9813318980
 C          3.0465621389       -2.4361603267        1.6060762384
 C          2.3666625259       -1.2353383492        1.4239140222
 N          2.7822226049       -0.0839486181        2.0960918116
 S          2.4111965499        1.4783211889        1.6494289674
 O          3.1844686181        2.2808847218        2.5744512624
 O          0.9861863659        1.6885347121        1.6694682422
 C          3.0915057102        1.6817853317        0.0136539816
 C          2.2854301685        1.6915236879       -1.1053563039
 C          2.8797272667        1.8516236541       -2.3491911341
 C          4.2539434519        1.9889080886       -2.4546551024
 C          5.0499849910        1.9738459136       -1.3185291260
 C          4.4648675868        1.8209797227       -0.0735585037
 H          5.0434989043        1.8272961826        0.8357920571
 H          6.1194334680        2.0830534717       -1.4002697487
 H          4.7062188425        2.1106015885       -3.4262862128
 H          2.2550489678        1.8644137438       -3.2278116441
 H          1.2174291386        1.5683127505       -1.0113978323
 H          3.6522163703       -0.1531448259        2.6000690744
 H          3.9137653530       -2.4717836063        2.2472375173
 H          3.1008404545       -4.5152431673        1.1332675356
 H          1.0912149206       -4.4409210050       -0.2877651305
 C         -0.4343417238       -2.2811703872       -0.9173720987
 H         -0.8863398807       -3.2865958046       -0.9113021546
 C         -0.0920936846       -1.9464599463       -2.3632423974
 C          1.2052780730       -1.3260481879       -2.7754419336
 C          0.9248741421       -2.7581390053       -3.1101805598
 H          0.7186797580       -3.0197968576       -4.1369719426
 H          1.4647740592       -3.5137932616       -2.5610776551
 H          1.1781624834       -0.5914802234       -3.5647126152
 H          1.9317080184       -1.1102065838       -2.0070572268
 H         -0.9702798372       -1.6389041393       -2.9213556772
 O         -0.8107755145        0.6410884843       -1.3940109717
