  62
        -98.94835104
 C          0.7971975057        1.2538123430        0.0553335802
 C          1.6054143308        0.8092481171        1.1274148877
 C          2.4398622025       -0.3655887904        0.8518723316
 C          2.3760824753       -0.9615675479       -0.3527151776
 C          3.1986726794       -2.1391968165       -0.8014243871
 C          4.6042736813       -1.7650528459       -1.2941092842
 C          5.5974975797       -1.3616826258       -0.2036573691
 H          5.6085736284       -2.1226510511        0.5772709947
 H          6.5886312277       -1.3510379613       -0.6615136749
 C          5.3304141281        0.0147196958        0.4210484498
 H          4.6650464471        0.5879856472       -0.2285457981
 H          6.2674547119        0.5717931101        0.4914657888
 C          4.7262847538       -0.0338747632        1.8243455237
 H          4.5401320823        0.9913217607        2.1544331978
 H          5.4400145478       -0.4856055177        2.5170353692
 C          3.4034104578       -0.8060763990        1.9123171685
 H          3.5870097182       -1.8778197870        1.8387643930
 H          2.9466724400       -0.5966044444        2.8832593468
 H          5.0074645796       -2.6365774256       -1.8149221543
 H          4.5147446208       -0.9550483953       -2.0213243797
 H          3.2771527236       -2.8644798096        0.0088054969
 H          2.6588591220       -2.5946638897       -1.6328763782
 O          1.5274489298       -0.5486278395       -1.3305426489
 C          0.7263340359        0.5704839447       -1.1584996750
 O          0.0121326004        0.8469272566       -2.1396937698
 O          1.6388942009        1.3753055413        2.2542905765
 C         -0.0239492276        2.5175896132        0.2257029027
 C         -1.4831650903        2.2564930636       -0.0462013359
 C         -2.2822389656        3.1123753983       -0.7937986673
 C         -3.6180514768        2.8181735768       -1.0042022991
 C         -4.1819706363        1.6700282015       -0.4806194267
 C         -3.3924290764        0.8127803294        0.2791943505
 C         -2.0582433182        1.1145090120        0.4973651975
 H         -1.4557963883        0.4480157790        1.0980806724
 N         -3.9406070155       -0.3530785880        0.8309610228
 S         -3.0185714298       -1.6758705005        1.2235946243
 O         -3.9877713954       -2.7401047983        1.3897001756
 O         -2.2026047267       -1.3991328386        2.3809068808
 C         -1.9754979848       -2.0807795750       -0.1678436785
 C         -2.2899817550       -1.6872710455       -1.4520562204
 C         -1.4853237872       -2.1121111399       -2.4975856479
 C         -0.4029999745       -2.9391763939       -2.2482993129
 C         -0.1056349410       -3.3349363414       -0.9537237680
 C         -0.8921081433       -2.8948056451        0.0969968066
 H         -0.6848691940       -3.1618497467        1.1214202986
 H          0.7345072930       -3.9812493497       -0.7565912241
 H          0.2152217843       -3.2711115246       -3.0676017890
 H         -1.7052830426       -1.7897386854       -3.5022813022
 H         -3.1352709357       -1.0445271092       -1.6358337411
 H         -4.8654300480       -0.6022487625        0.5145773422
 H         -5.2211996382        1.4351161823       -0.6522074876
 H         -4.2268815918        3.4888031004       -1.5911030630
 H         -1.8587886331        4.0083814141       -1.2164467701
 H          0.0808458358        2.7945037965        1.2860440102
 C          0.5607352960        3.6259467151       -0.6272662379
 C          0.4718016832        5.0551524628       -0.1849047794
 C          1.7866780572        4.3379777884       -0.1424088858
 H          2.5469753203        4.6061384819       -0.8606831857
 H          2.1804880626        4.0437202416        0.8197030783
 H          0.3322670327        5.8200665606       -0.9338999395
 H         -0.0233006581        5.2586273910        0.7525791642
 H          0.4948907616        3.4106285907       -1.6881416735
