  62
        -98.94685868
 C          1.2374669376        1.2236490587        0.0850688143
 C          1.9845911777        0.6919854835        1.1619074780
 C          2.6623478197       -0.5854666542        0.9044739560
 C          2.5068842866       -1.1818493330       -0.2919783121
 C          3.1900899450       -2.4519022097       -0.7075492565
 C          4.5315450129       -2.1601527570       -1.3950228334
 C          5.4265223537       -1.1935285387       -0.6196352117
 H          4.9526347895       -0.2096097109       -0.5944914249
 H          6.3562096317       -1.0875751300       -1.1828684384
 C          5.7467101800       -1.6370420479        0.8146874067
 H          6.8124983455       -1.4858720647        0.9987701311
 H          5.5478312893       -2.7035080022        0.9268003304
 C          4.9944373209       -0.8646696010        1.9000188706
 H          5.1185648955        0.2091593640        1.7380340156
 H          5.4492600822       -1.1036977527        2.8651727524
 C          3.4943109650       -1.1644831663        2.0141164153
 H          3.1326118641       -0.6986312617        2.9357393591
 H          3.3398106155       -2.2426179628        2.0923629333
 H          4.3306771016       -1.7261385520       -2.3770387191
 H          5.0570746165       -3.1054794149       -1.5421922995
 H          2.5432271482       -2.9800404556       -1.4088943468
 H          3.3492351177       -3.0774994148        0.1685399880
 O          1.7428394775       -0.6636054949       -1.2850805492
 C          1.0861500306        0.5472058047       -1.1265089006
 O          0.4162612705        0.9020508428       -2.1119722456
 O          2.0734052277        1.2547984615        2.2878499412
 C          0.5099677336        2.5435125554        0.2736877306
 C         -0.9743530676        2.3068963710        0.1485690928
 C         -1.8017389244        3.0046078258       -0.7199217141
 C         -3.1480548245        2.6912168776       -0.8096242250
 C         -3.6982227675        1.6870568639       -0.0346464672
 C         -2.8801034314        0.9926019458        0.8475847355
 C         -1.5341665513        1.3060662227        0.9345877331
 H         -0.8980404877        0.7580915217        1.6192099914
 N         -3.4280628650       -0.0417697021        1.6398138006
 S         -3.9936266114       -1.3754356410        0.7970993102
 O         -5.1657491431       -0.9914483290        0.0533980156
 O         -4.1763885520       -2.4092772363        1.7906863602
 C         -2.6764980300       -1.8206818974       -0.3190343672
 C         -1.7018652407       -2.6929298212        0.1225968790
 C         -0.6578973712       -3.0168849458       -0.7281181848
 C         -0.6023074285       -2.4574383020       -1.9953377635
 C         -1.5803859083       -1.5716414339       -2.4183829037
 C         -2.6292957269       -1.2474329671       -1.5737076450
 H         -3.4104637248       -0.5666505150       -1.8699462920
 H         -1.5194093300       -1.1220456133       -3.3958156956
 H          0.2123437900       -2.7023606171       -2.6583553819
 H          0.1095417441       -3.6993815884       -0.3984625181
 H         -1.7862068154       -3.1135339743        1.1122170733
 H         -2.7952467364       -0.3564051866        2.3625635438
 H         -4.7394430084        1.4176179566       -0.1075098689
 H         -3.7775186036        3.2362160109       -1.4966142463
 H         -1.3922821197        3.7866974267       -1.3374427087
 H          0.7221255370        2.8507624464        1.3084415100
 C          1.0461194355        3.5990657127       -0.6686727153
 C          0.9281002094        5.0505173645       -0.3143487550
 C          2.2647895052        4.3747675174       -0.2712030112
 H          2.9923571898        4.6180710163       -1.0309579122
 H          2.6989628758        4.1587259943        0.6942654028
 H          0.7397652551        5.7614682765       -1.1044882287
 H          0.4554892294        5.2991517085        0.6238488273
 H          0.9522727805        3.3158140334       -1.7106854666
