  62
        -98.93302716
 C         -2.1054634443       -0.9421772984        0.3926672838
 C         -2.7589840732       -0.0953884139        1.3205293008
 C         -3.2392290672        1.2013035002        0.8138545179
 C         -2.9802646861        1.5367231578       -0.4616350556
 C         -3.4133773407        2.7801251569       -1.1876471378
 C         -4.7365183236        2.5403996806       -1.9346380059
 C         -5.9972865852        2.7843216336       -1.1058773092
 H         -6.1118050861        3.8568256592       -0.9357963940
 H         -6.8483934501        2.4546276879       -1.7059604444
 C         -6.0418158659        2.0674351212        0.2461757324
 H         -5.6781109262        1.0446492738        0.1318775346
 H         -7.0861612650        2.0057226067        0.5578583593
 C         -5.2393845678        2.7886370983        1.3394318869
 H         -5.8687755171        2.9208972432        2.2217707717
 H         -4.9818222841        3.7884298952        0.9904812636
 C         -3.9689747645        2.0634592947        1.8079758282
 H         -3.2659087835        2.7996816288        2.2122775419
 H         -4.2177264180        1.3864992016        2.6313518505
 H         -4.7301433474        1.5115496909       -2.3040198177
 H         -4.7705987239        3.1985498016       -2.8051616918
 H         -2.6323131918        2.9987584489       -1.9192494729
 H         -3.4942902445        3.6184078646       -0.5018557537
 O         -2.2957390971        0.7190846750       -1.3072427537
 C         -1.8364506674       -0.5282601116       -0.9133217977
 O         -1.2206622793       -1.1430518046       -1.8038249498
 O         -2.9322233191       -0.4090289798        2.5296687682
 C         -1.5898266109       -2.2790472267        0.8974529200
 C         -0.1478843688       -2.4459039320        0.4874556520
 C          0.3377574769       -3.5232263424       -0.2402473017
 C          1.6692221801       -3.5720208578       -0.6176547753
 C          2.5416397762       -2.5535053900       -0.2822927448
 C          2.0658009855       -1.4737207549        0.4482298548
 C          0.7384419058       -1.4344522280        0.8382774654
 H          0.3700170556       -0.5822162361        1.3988861706
 N          2.9487535849       -0.4143204640        0.7756913988
 S          3.3496489867        0.6149478403       -0.5076861990
 O          2.4715830008        1.7684110400       -0.4823827356
 O          3.3996774411       -0.1417463477       -1.7311030649
 C          4.9967614462        1.1089485307       -0.0373060764
 C          6.0315837734        0.2211231454       -0.2586820808
 C          7.3128518490        0.5729604043        0.1334485576
 C          7.5365560750        1.8000926675        0.7402076522
 C          6.4878838802        2.6808783440        0.9557717272
 C          5.2035377779        2.3335485779        0.5661928704
 H          4.3597091929        2.9896095724        0.7071088182
 H          6.6643993426        3.6352374969        1.4253490037
 H          8.5347610242        2.0724580168        1.0447374967
 H          8.1308458763       -0.1089431579       -0.0342360691
 H          5.8114725100       -0.7168186301       -0.7409338029
 H          2.5652171146        0.1687931698        1.5090012288
 H          3.5718239468       -2.5697503246       -0.5969397578
 H          2.0284644337       -4.4120784579       -1.1925772822
 H         -0.3322124385       -4.3120921592       -0.5404950771
 H         -1.6204480273       -2.1830539044        1.9962580556
 C         -2.4675308081       -3.4699607580        0.5452244179
 C         -3.9322320630       -3.2967855026        0.2788434329
 C         -3.0096712411       -3.6874140955       -0.8345478708
 H         -3.0622448593       -4.6989698278       -1.2100319162
 H         -2.7660923855       -2.9545552389       -1.5875246650
 H         -4.6157828944       -4.0365464455        0.6675232442
 H         -4.3263230433       -2.2907555016        0.2864349486
 H         -2.1850653646       -4.3582741425        1.1017213534
