  62
        -98.94269354
 C         -1.0346724617       -1.4573597756       -0.8858097504
 C         -0.3461572814       -2.2805625202        0.0368176147
 C          1.0917659160       -2.4564112927       -0.2079313832
 C          1.6761939284       -1.8124516754       -1.2328306890
 C          3.1377687582       -1.8426268823       -1.5901417847
 C          4.0702253509       -1.2011387662       -0.5427345656
 C          4.7117372469       -2.2075180828        0.4209428598
 H          4.7191808344       -3.1915157780       -0.0501727804
 H          5.7551440410       -1.9271271028        0.5796419292
 C          4.0610603019       -2.3101617039        1.8040230159
 H          4.4298010117       -3.2221213514        2.2800647511
 H          4.3865487886       -1.4640489767        2.4140647356
 C          2.5314303639       -2.3197740837        1.8290721641
 H          2.1531312304       -1.3072811262        1.6672131933
 H          2.2108780998       -2.6066899565        2.8333472773
 C          1.8717248866       -3.2542801780        0.7957207667
 H          2.6198173266       -3.8721443541        0.3005451524
 H          1.1566224658       -3.9097403830        1.2976032189
 H          3.5186763229       -0.4432665485        0.0164558968
 H          4.8667027065       -0.6898474182       -1.0864388431
 H          3.2255781570       -1.3002950424       -2.5338042848
 H          3.4419721320       -2.8761597635       -1.7687904275
 O          0.9776124904       -1.0337331244       -2.1029232200
 C         -0.3793626286       -0.8133574570       -1.9341956018
 O         -0.8818868787       -0.0360833753       -2.7718241831
 O         -0.8984354141       -2.8409068671        1.0199867641
 C         -2.4907010426       -1.0925482862       -0.6446449869
 C         -2.5445576950       -0.3016123152        0.6416864394
 C         -3.4095747709       -0.5682073544        1.6933765043
 C         -3.3266890344        0.1665015107        2.8649630478
 C         -2.3759288360        1.1586905010        3.0192464089
 C         -1.5166328508        1.4440346508        1.9632589024
 C         -1.6318001628        0.7372196264        0.7798469681
 H         -0.9665680410        0.9652339818       -0.0403706631
 N         -0.5386780268        2.4448987017        2.0599814924
 S          0.9156016518        2.2639588409        1.2502452658
 O          1.3531727244        0.8880880536        1.2078203136
 O          1.8112126765        3.1830329314        1.9240970387
 C          0.6034790799        2.8752715127       -0.3908156499
 C          1.2532452853        2.2856321151       -1.4559589429
 C          1.0361628149        2.7783472847       -2.7322871823
 C          0.1806066023        3.8521769654       -2.9187392764
 C         -0.4582139081        4.4397666305       -1.8373333139
 C         -0.2454107973        3.9511900623       -0.5586480047
 H         -0.7304683555        4.3778759968        0.3033985016
 H         -1.1248245903        5.2737650176       -1.9878196361
 H          0.0083555765        4.2288377215       -3.9146442223
 H          1.5246549026        2.3118676405       -3.5724806751
 H          1.8968289513        1.4390568597       -1.2734944908
 H         -0.4182515269        2.8483128078        2.9773505265
 H         -2.2923680012        1.7045252168        3.9466231255
 H         -3.9993389824       -0.0535605149        3.6801144989
 H         -4.1350503089       -1.3600591679        1.6046670767
 H         -2.7786377815       -0.4259930181       -1.4706872019
 C         -3.3867043073       -2.3105290307       -0.6591387895
 C         -4.8342576587       -2.1711150177       -1.0210512996
 C         -3.8833089799       -2.8279487528       -1.9746039401
 H         -3.9472682346       -3.8962183465       -2.1166307592
 H         -3.5914219392       -2.2864438723       -2.8627761576
 H         -5.5554945787       -2.7911829075       -0.5105061194
 H         -5.1952020154       -1.1838987628       -1.2668100067
 H         -3.1123181192       -3.0397223616        0.0936711659
