  62
        -98.93647946
 C         -1.2285559711       -1.6170870074       -0.6061669437
 C         -2.4388127545       -1.6255048150        0.1325833477
 C         -3.4646903744       -0.6562050764       -0.2687803068
 C         -3.2268232845        0.1671766630       -1.3051180486
 C         -4.1753563038        1.1833867120       -1.8842422684
 C         -4.5349172971        2.3709561747       -0.9707412954
 C         -5.8220529167        2.1767179472       -0.1593766203
 H         -6.3686790984        3.1217336829       -0.1392310051
 H         -6.4575191658        1.4575863008       -0.6778156194
 C         -5.6362774746        1.7380623153        1.2962961155
 H         -5.3350155222        2.6021588751        1.8930573954
 H         -6.6056357708        1.4011543582        1.6701548874
 C         -4.6036540840        0.6362952391        1.5359844279
 H         -4.7112327396        0.2857976533        2.5646110542
 H         -3.5959861137        1.0539917849        1.4579243012
 C         -4.7041575798       -0.5621713399        0.5720560558
 H         -4.7673686746       -1.4926270406        1.1398976801
 H         -5.5903481025       -0.4791622302       -0.0554439542
 H         -4.6688284312        3.2389353067       -1.6187336647
 H         -3.6931120424        2.5893883534       -0.3129046912
 H         -5.0907554639        0.6736759121       -2.1938236896
 H         -3.6824943453        1.5627016884       -2.7818176909
 O         -2.0609356928        0.1356557110       -2.0010820964
 C         -1.0179624031       -0.7155205992       -1.6505890664
 O         -0.0047053245       -0.5690252712       -2.3578884892
 O         -2.6542164629       -2.4242333870        1.0847352929
 C         -0.1563881884       -2.5861497397       -0.1413021447
 C          0.6352270022       -1.9948587548        1.0003739046
 C          1.0443937461       -2.7800424632        2.0722695038
 C          1.7679160481       -2.2236354632        3.1123020133
 C          2.0859194360       -0.8778342150        3.1099968125
 C          1.6636757226       -0.0781690030        2.0519611858
 C          0.9577927964       -0.6458244315        1.0013085981
 H          0.6254213233       -0.0183889704        0.1910301816
 N          1.9175031779        1.2953658103        2.0613567650
 S          1.8988701977        2.2788215031        0.7166593563
 O          2.3582680163        3.5531250624        1.2288991102
 O          0.5935102923        2.2782054792        0.1055379682
 C          3.1479093649        1.6174210278       -0.3700381667
 C          2.8155673074        0.9289616246       -1.5177153085
 C          3.8384103742        0.4339620878       -2.3144131232
 C          5.1613020729        0.6262698285       -1.9519853373
 C          5.4778174472        1.3201601660       -0.7929969587
 C          4.4637561029        1.8216387155        0.0043208420
 H          4.6658018365        2.3856221397        0.9003214395
 H          6.5075461556        1.4721904760       -0.5124275696
 H          5.9487234064        0.2351164567       -2.5766835210
 H          3.5832681432       -0.1031426259       -3.2137609335
 H          1.7812843278        0.7723671582       -1.7832521950
 H          2.5254137848        1.6317894326        2.7913497221
 H          2.6370615494       -0.4407474473        3.9281657504
 H          2.0814194664       -2.8427285059        3.9389455366
 H          0.7721137147       -3.8247254851        2.0994871239
 H         -0.7093050247       -3.4498952251        0.2632176462
 C          0.7338976319       -3.0987573470       -1.2637510878
 C          2.1491042990       -2.6509878171       -1.4522255481
 C          1.8648080964       -4.0407461294       -0.9728850756
 H          2.0311393240       -4.8653352628       -1.6492354206
 H          2.0794467529       -4.2649182154        0.0602778633
 H          2.4964293482       -2.5072675090       -2.4631017738
 H          2.5525188412       -1.9369383962       -0.7505420624
 H          0.1667592568       -3.2869954404       -2.1694104885
