  62
        -98.94398512
 C          1.6808188899        1.4592754092       -0.2711841171
 C          2.7060218984        0.7733043607        0.4192573425
 C          3.0676968632       -0.5488460912       -0.1082206591
 C          2.4432535669       -1.0130601191       -1.2055799848
 C          2.6296112816       -2.3775068021       -1.8055656765
 C          1.7966056558       -3.4071735592       -1.0146237322
 C          2.6249087702       -4.4393774733       -0.2466651860
 H          1.9501987210       -4.9373130971        0.4533049801
 H          2.9906857543       -5.1934303448       -0.9475975560
 C          3.8323007700       -3.8982857901        0.5252926352
 H          4.6627580411       -3.7322214938       -0.1628169917
 H          4.1487945107       -4.6866143604        1.2116991348
 C          3.5933200282       -2.6129553219        1.3282545554
 H          2.5320152528       -2.4949546798        1.5550881754
 H          4.1155192860       -2.7025883879        2.2833180309
 C          4.1067103154       -1.3306188937        0.6447793854
 H          4.4780240466       -0.6454675607        1.4125720729
 H          4.9438154030       -1.5723427644       -0.0157002268
 H          1.1372064649       -3.9440190424       -1.6992088132
 H          1.1474390676       -2.8653782365       -0.3218734736
 H          2.2856018289       -2.3285237514       -2.8391300295
 H          3.6834691862       -2.6463993982       -1.7988143354
 O          1.4917577446       -0.3066977035       -1.8665641944
 C          1.0476923632        0.9140477265       -1.3860054574
 O          0.1050358928        1.4087610168       -2.0354911430
 H          0.1032757213        0.6699611724        1.5489268896
 C         -0.6577920945        1.3960902472        1.3035560031
 C         -0.3043593522        2.5749067481        0.6585587320
 C         -1.3035703708        3.4967169276        0.3744555774
 C         -2.6219141224        3.2238956623        0.6996928680
 C         -2.9749629012        2.0228638440        1.2876536968
 C         -1.9796355599        1.0999583977        1.5873586020
 N         -2.2755912747       -0.1555097756        2.1603983068
 S         -1.9196016930       -1.5065791266        1.2311601677
 O         -2.3733144369       -2.6331613356        2.0183279045
 O         -0.5273646869       -1.5055266784        0.8654948551
 C         -2.9653179463       -1.3311945977       -0.2029892939
 C         -2.5914477266       -0.4715538842       -1.2161323811
 C         -3.4576227465       -0.2830679412       -2.2827765961
 C         -4.6727198124       -0.9489993498       -2.3179597934
 C         -5.0326809290       -1.8099362133       -1.2916451731
 C         -4.1751203121       -1.9995204805       -0.2206589433
 H         -4.4098880820       -2.6595387096        0.5989066865
 H         -5.9768934464       -2.3294170657       -1.3215214892
 H         -5.3409471390       -0.7961109230       -3.1507089085
 H         -3.1667364732        0.3884854157       -3.0746774854
 H         -1.6403207976        0.0362531861       -1.1759544650
 H         -3.2248327975       -0.2335503368        2.5003910073
 H         -4.0069229084        1.7980653738        1.5115463457
 H         -3.3880852225        3.9487412140        0.4708880873
 H         -1.0518278426        4.4254735765       -0.1108622923
 C          1.1481764788        2.7649656507        0.2922755431
 H          1.7203203671        2.9434541502        1.2150656469
 C          1.3873763559        3.9135315995       -0.6640636683
 C          1.5729640248        5.3061452078       -0.1415445497
 C          2.7415966700        4.5536533759       -0.7008107463
 H          3.1433938319        4.8553173194       -1.6563357732
 H          3.4857146762        4.1759768599       -0.0146894706
 H          1.5290682467        5.4492260382        0.9275717382
 H          1.1750157209        6.1295414566       -0.7151604103
 H          0.8698155664        3.7824039219       -1.6075408862
 O          3.2812046385        1.2415871234        1.4407585762
