  62
        -98.94497924
 C          2.0481140499       -1.3362674166       -0.0198295984
 C          2.6324143295       -0.6715826651       -1.1241887444
 C          3.8095701634        0.1514898471       -0.8271293694
 C          4.2645131818        0.2333400438        0.4367227128
 C          5.4664326569        1.0141590988        0.8948798438
 C          5.1803847859        2.4971908415        1.1681529004
 C          4.9546716683        3.3561417435       -0.0767907166
 H          4.9800738681        4.3992952477        0.2445349272
 H          5.7812667981        3.2097571150       -0.7727701581
 C          3.6228834209        3.0939248584       -0.7939892135
 H          2.9476111062        2.5585889746       -0.1216940852
 H          3.1443859326        4.0464562992       -1.0338103625
 C          3.7513426494        2.3085258412       -2.0995085813
 H          4.3189472480        2.8955864851       -2.8248187313
 H          2.7486616224        2.1519943075       -2.5060091128
 C          4.4216464414        0.9364178158       -1.9481477810
 H          4.2654173169        0.3749260402       -2.8724826025
 H          5.4927344057        1.0572025572       -1.7887590150
 H          4.3097322649        2.5702291425        1.8243090018
 H          6.0388938864        2.9003490444        1.7101774348
 H          5.8004492867        0.5516318539        1.8260855841
 H          6.2644383280        0.9262350466        0.1571426804
 O          3.6724905092       -0.4184088636        1.4720646520
 C          2.5381962614       -1.1956408760        1.2788353250
 O          2.0787250859       -1.6980416152        2.3209849261
 O          2.1882094660       -0.7588861682       -2.3011387397
 C          0.8154474846       -2.1923950953       -0.2492533380
 C         -0.3634625127       -1.5949089072        0.4792961747
 C         -1.1961261950       -2.3183116671        1.3218362398
 C         -2.2527771803       -1.6965676262        1.9661313549
 C         -2.5087791943       -0.3516180124        1.7774964900
 C         -1.6941644112        0.3771398075        0.9187900158
 C         -0.6380517529       -0.2473993180        0.2745250875
 H         -0.0026913639        0.3229250419       -0.3920440872
 N         -1.9564223611        1.7402157229        0.7024535758
 S         -3.5457874920        2.2068214491        0.4645829049
 O         -3.4709738027        3.4045337761       -0.3424826297
 O         -4.2059815498        2.3486598170        1.7384367285
 C         -4.2953649217        0.8752165000       -0.4569484924
 C         -5.3734613056        0.1940625462        0.0701427049
 C         -5.9210719113       -0.8551971173       -0.6506692262
 C         -5.3807399043       -1.2057897680       -1.8779130953
 C         -4.2994945728       -0.5091681071       -2.3960476687
 C         -3.7496723232        0.5421157064       -1.6809679068
 H         -2.9112830432        1.1050555060       -2.0595924755
 H         -3.8797554731       -0.7825203225       -3.3509182362
 H         -5.8037334142       -2.0260045656       -2.4360445653
 H         -6.7631713918       -1.3970006701       -0.2514327049
 H         -5.7594235698        0.4976931624        1.0295881042
 H         -1.3395820224        2.1776234685        0.0344168906
 H         -3.3156400836        0.1491465891        2.2874329116
 H         -2.8838067013       -2.2681349140        2.6292128681
 H         -1.0120384179       -3.3669947489        1.4850901011
 H          0.6148878398       -2.1260827787       -1.3290942944
 C          1.0884512705       -3.6378179381        0.1061918567
 C          0.3190862502       -4.7351675015       -0.5647190208
 C          1.7618855670       -4.5159991232       -0.9040810170
 H          2.4907585897       -5.2336658645       -0.5585779993
 H          2.0034071262       -4.0770460853       -1.8612118506
 H          0.0571305478       -5.6086752970        0.0128149148
 H         -0.4217232697       -4.4504734316       -1.2962103640
 H          1.3687302904       -3.7665073706        1.1453677434
