  62
        -98.93965855
 C         -1.0186858319       -1.4134208741        0.4717595136
 C         -1.9549194181       -1.1317664812       -0.5484270155
 C         -3.0295331703       -0.1773621101       -0.2125481195
 C         -3.0596826855        0.3708432287        1.0153062937
 C         -4.0255846037        1.3819123222        1.5807051265
 C         -5.5138589956        1.1899366218        1.2529352389
 C         -6.0603450765        2.2275818714        0.2706501798
 H         -7.1390706191        2.3147186370        0.4185853711
 H         -5.6189098395        3.1974226664        0.5099506072
 C         -5.8206892529        1.9159846807       -1.2054956301
 H         -6.4616848991        1.0852939040       -1.5085344200
 H         -6.1277714019        2.7915915182       -1.7822097577
 C         -4.3770365600        1.5687183941       -1.5743654645
 H         -3.6781373204        2.2210899135       -1.0501906186
 H         -4.2482852545        1.7614977358       -2.6417777463
 C         -4.0139840704        0.0983952966       -1.3157528097
 H         -3.5496534113       -0.3276536045       -2.2107290699
 H         -4.9218718288       -0.4848911862       -1.1379454352
 H         -6.0721872568        1.2851336035        2.1856776367
 H         -5.6839492482        0.1828574644        0.8761265989
 H         -3.8763030883        1.3395300073        2.6623734985
 H         -3.6982669725        2.3761412812        1.2637414910
 O         -2.1231015806        0.0814019495        1.9638897557
 C         -1.0751679527       -0.7838368867        1.7129909521
 O         -0.2715300801       -0.9107768069        2.6604168356
 O         -1.8967260178       -1.6450868818       -1.6971600819
 C          0.1498976835       -2.3413488114        0.2007748830
 C          1.0370361705       -1.7710215304       -0.8816312443
 C          1.7250427508       -2.5592732951       -1.7962079824
 C          2.5488595304       -1.9736737585       -2.7421607862
 C          2.7227307025       -0.6019630959       -2.7863332446
 C          2.0411505245        0.1945194161       -1.8733166564
 C          1.2080871989       -0.3952928593       -0.9371402841
 H          0.6629927197        0.2371148428       -0.2542132670
 N          2.1765721348        1.5905068840       -1.8778953635
 S          2.1273600389        2.4423544197       -0.4411010715
 O          0.7803185005        2.5013109268        0.0704287094
 O          2.7313410309        3.7167521997       -0.7685587774
 C          3.2016133485        1.5388339296        0.6597729651
 C          4.5581155743        1.5941810412        0.3986718414
 C          5.4281106446        0.8700252428        1.1957864878
 C          4.9294785320        0.0981866818        2.2349442099
 C          3.5677679701        0.0569504302        2.4873960829
 C          2.6916833899        0.7836217681        1.6952539920
 H          1.6286289252        0.7597701756        1.8788317792
 H          3.1676095390       -0.5392974593        3.2921517464
 H          5.6043416239       -0.4717364157        2.8538354552
 H          6.4884036653        0.9062403402        1.0046557283
 H          4.9064458883        2.2153801880       -0.4104118355
 H          2.8716536587        1.9542086370       -2.5125391654
 H          3.3676142477       -0.1495176171       -3.5236727510
 H          3.0702214295       -2.5964753442       -3.4529522800
 H          1.6098816573       -3.6305486470       -1.7729293303
 H          0.7382481980       -2.3638999986        1.1311209502
 C         -0.3364853862       -3.7442133534       -0.1010723671
 C          0.4748032228       -4.9340786421        0.3131397314
 C         -0.7974516393       -4.6074327604        1.0337516079
 H         -1.6577420818       -5.2420059813        0.8829912639
 H         -0.7315708843       -4.1922555861        2.0292868177
 H          0.4866622203       -5.7994025773       -0.3323654112
 H          1.4061495722       -4.7518304516        0.8277369723
 H         -0.8931812721       -3.7987798198       -1.0291561898
