  62
        -98.93907960
 C         -2.5329301446       -1.1558506929        0.6232551705
 C         -3.3999252238       -0.9812267283       -0.4837473342
 C         -4.4587137681        0.0280048389       -0.3120684590
 C         -4.5350588376        0.7265058367        0.8342095492
 C         -5.5265245514        1.8183323915        1.1121295914
 C         -4.9718244029        3.1916420382        0.7088917262
 C         -4.3775714423        3.2289083256       -0.6991499125
 H         -4.0488868145        4.2537014276       -0.8856898851
 H         -3.4860594460        2.5976337503       -0.7262947079
 C         -5.3442263933        2.7911888507       -1.8084764243
 H         -5.2647119217        3.4956521750       -2.6390758550
 H         -6.3709924473        2.8355727193       -1.4435248694
 C         -5.0678026186        1.3983752767       -2.3774083336
 H         -4.0138197931        1.3195685122       -2.6551462384
 H         -5.6569599465        1.2816249699       -3.2908467449
 C         -5.4132210013        0.2208563016       -1.4571736509
 H         -6.4364309450        0.3272511567       -1.0914998752
 H         -5.3534385749       -0.6940314804       -2.0538480750
 H         -5.7767782212        3.9249001321        0.7859284092
 H         -4.1885921867        3.4709508241        1.4177386019
 H         -6.4465573218        1.6128606155        0.5683452357
 H         -5.7406834639        1.8232402258        2.1822767338
 O         -3.6734984299        0.5441249605        1.8684954459
 C         -2.6550477177       -0.3878799248        1.7843507643
 O         -1.9334164589       -0.4510880871        2.8016134671
 H          0.9499496741       -1.6686689989        1.8833626277
 C          0.9652270773       -1.3165550516        0.8605097299
 C         -0.1561036412       -1.4927104367        0.0646368479
 C         -0.1381972033       -0.9968507259       -1.2362260996
 C          0.9871096661       -0.3599706605       -1.7248640199
 C          2.1099696225       -0.1967171265       -0.9308959593
 C          2.0928755010       -0.6650494533        0.3753225293
 N          3.2245942437       -0.5017212982        1.1900979849
 S          4.0094739317        0.9820587364        1.2031550276
 O          4.6938093910        1.0313872750        2.4765855144
 O          3.1023676538        2.0690207896        0.9164926435
 C          5.2176071524        0.8286304432       -0.0967653038
 C          5.2926881441        1.7911287607       -1.0843736507
 C          6.2462710046        1.6556222788       -2.0814953879
 C          7.1039372816        0.5663986652       -2.0726717906
 C          7.0179091106       -0.3897468387       -1.0716157587
 C          6.0679582271       -0.2594958147       -0.0713009050
 H          5.9711988073       -0.9782559894        0.7250648903
 H          7.6866726367       -1.2353370937       -1.0680938887
 H          7.8436932585        0.4622286981       -2.8506211458
 H          6.3149345702        2.3985750873       -2.8598160078
 H          4.6008435538        2.6180467226       -1.0542672683
 H          3.1045386865       -0.8530018819        2.1292867281
 H          2.9857103457        0.3055361697       -1.3078023947
 H          0.9916771618        0.0168298642       -2.7365242036
 H         -1.0184514909       -1.1131107892       -1.8504456315
 C         -1.3859459819       -2.1550212961        0.6297623481
 H         -1.1927536885       -2.3566963152        1.6951627124
 C         -1.7368348752       -3.4827650038       -0.0284595892
 C         -1.0085400301       -4.0451776732       -1.2092372278
 C         -0.8160338723       -4.6551804684        0.1440042951
 H         -1.2428938546       -5.6257540360        0.3465575451
 H          0.1243920458       -4.4733453312        0.6430721478
 H         -0.1939283596       -3.4772600930       -1.6295818142
 H         -1.5910801944       -4.5807575294       -1.9431918738
 H         -2.7994804925       -3.6933451560        0.0204752472
 O         -3.3162896912       -1.6237124387       -1.5606912549
