  62
        -98.94667485
 C          1.1807981747        1.2744228174        0.0811706959
 C          1.5736443879        0.2921500616        1.0235874641
 C          2.4190711951       -0.7929016499        0.5129297164
 C          2.7130370380       -0.8314876726       -0.7995280115
 C          3.6345372756       -1.8267780050       -1.4423998990
 C          5.0796499030       -1.3078855211       -1.4597172233
 C          5.5672280228       -0.7910307008       -0.1060766467
 H          6.6082990350       -0.4853885312       -0.2309151721
 H          5.0002310315        0.1039468117        0.1600183937
 C          5.4676501147       -1.8111899897        1.0368544322
 H          5.3652699261       -2.8172440309        0.6286301329
 H          6.3976106802       -1.7878306277        1.6088546282
 C          4.3304143824       -1.5464480083        2.0254794586
 H          4.4813468398       -2.1888413293        2.8971531949
 H          4.3802433770       -0.5107119997        2.3709916431
 C          2.9140901468       -1.8124625520        1.4991982191
 H          2.2286493556       -1.7641825857        2.3501317936
 H          2.8633225496       -2.8164582763        1.0741322086
 H          5.7317724178       -2.1149022757       -1.7987855621
 H          5.1467481652       -0.4912289596       -2.1821420859
 H          3.3075621433       -1.9898430895       -2.4707476733
 H          3.5884404026       -2.7678765193       -0.8976354103
 O          2.2326978633        0.0700759872       -1.6904257045
 C          1.4550368804        1.1439146970       -1.2807616351
 O          1.0843195889        1.8832909476       -2.2105906598
 O          1.2379857489        0.3281339268        2.2387856100
 C          0.3654285181        2.4575585279        0.5798945256
 C         -1.0722732251        2.2415827248        0.1803358882
 C         -1.6950506961        2.9181033520       -0.8596438057
 C         -3.0020292605        2.6173187191       -1.2062981007
 C         -3.7133077342        1.6460611811       -0.5247947145
 C         -3.0962730711        0.9642884181        0.5163713045
 C         -1.7884133892        1.2632402096        0.8610727722
 H         -1.3030159753        0.7236494314        1.6643717997
 N         -3.8098069788       -0.0464388044        1.2037313000
 S         -4.0881641102       -1.4401554288        0.3189301751
 O         -4.9069197585       -1.1094418185       -0.8183396889
 O         -4.6387479005       -2.3963846363        1.2514005213
 C         -2.4747592003       -1.9766139492       -0.2217142974
 C         -1.8136395168       -2.9441986426        0.5077907250
 C         -0.5464653133       -3.3354590430        0.1085718274
 C          0.0387161092       -2.7461159735       -1.0011040104
 C         -0.6304824578       -1.7626038597       -1.7126792113
 C         -1.9006252513       -1.3711154232       -1.3218007637
 H         -2.4504261281       -0.6153307159       -1.8592222691
 H         -0.1652240246       -1.2912271888       -2.5645628441
 H          1.0221917677       -3.0540327802       -1.3173449065
 H         -0.0189452503       -4.0952623323        0.6622921140
 H         -2.3089903857       -3.3809572871        1.3602034895
 H         -3.3743719226       -0.3026325532        2.0797895017
 H         -4.7246552095        1.3894588092       -0.7948487978
 H         -3.4732616682        3.1477222752       -2.0199091586
 H         -1.1512857940        3.6676557039       -1.4101840314
 H          0.4172230920        2.4009160595        1.6762788315
 C          0.9379008176        3.7854352618        0.1354110470
 C          0.5019981616        5.0386694913        0.8320954826
 C          1.8889622688        4.5103879982        1.0380123487
 H          2.7160491338        5.0431096331        0.5931125492
 H          2.1257016305        4.0538384480        1.9881426887
 H          0.3753292850        5.9370336672        0.2477389189
 H         -0.2046793078        4.9382409368        1.6421058648
 H          1.1307281648        3.8364490062       -0.9287672697
