  62
        -98.94488735
 C         -2.4375177404       -1.1285334416       -0.0480330763
 C         -3.0993527720       -0.3491968721        0.9383903063
 C         -3.6668920852        0.9256015042        0.4913720453
 C         -3.5570112777        1.2847500626       -0.8000314047
 C         -4.0850367882        2.5510752919       -1.4167906122
 C         -3.1469302617        3.7548585410       -1.2520736817
 C         -3.0839317317        4.3409083979        0.1591033674
 H         -2.5745239326        5.3034599881        0.0820148177
 H         -4.0958323097        4.5343312661        0.5166998967
 C         -2.3339486246        3.4680892384        1.1753491362
 H         -1.6525934792        4.0930673368        1.7573157730
 H         -1.7162176714        2.7381898154        0.6451971948
 C         -3.2343611947        2.7336810152        2.1693807548
 H         -2.6005539048        2.1150824320        2.8096682469
 H         -3.7482679582        3.4603674093        2.8024544934
 C         -4.2847633001        1.8227591510        1.5208254791
 H         -4.7154832827        1.1882155899        2.2990924964
 H         -5.0791541495        2.4211655221        1.0756939313
 H         -3.4954755369        4.5356761176       -1.9321965005
 H         -2.1425432549        3.4617907588       -1.5691818546
 H         -4.2059291676        2.3515810500       -2.4837253693
 H         -5.0615499629        2.7875866820       -0.9933249068
 O         -2.9448186998        0.4988952792       -1.7226769625
 C         -2.3405879160       -0.6998739978       -1.3716305290
 O         -1.7812541143       -1.2662418501       -2.3343563781
 H          0.1488375780       -1.8470741378       -1.3737797003
 C          0.5328743079       -1.8516078423       -0.3641434359
 C         -0.3204146237       -2.1470610442        0.6901513897
 C          0.1877210944       -2.1137923876        1.9835579562
 C          1.5134310557       -1.7888300921        2.2131661073
 C          2.3540579142       -1.4745356881        1.1598671957
 C          1.8522476776       -1.4985366767       -0.1343406627
 N          2.6918613612       -1.1139481222       -1.2101200122
 S          2.9369659513        0.5553463474       -1.2712563175
 O          1.7832749470        1.2776952933       -0.7803383638
 O          3.3449503545        0.8423977697       -2.6294573181
 C          4.3199237574        0.8009234236       -0.1779989836
 C          4.1505672639        1.5031076805        0.9988584945
 C          5.2392021478        1.6700432228        1.8409046819
 C          6.4697178117        1.1340388928        1.4928338474
 C          6.6234110952        0.4331206325        0.3056255775
 C          5.5395410485        0.2629800428       -0.5407854512
 H          5.6127718424       -0.2696208768       -1.4742060546
 H          7.5820582422        0.0186643726        0.0384594922
 H          7.3142038624        1.2639490613        2.1510651502
 H          5.1213661299        2.2146185666        2.7639115884
 H          3.1730025361        1.8959610588        1.2288923935
 H          2.3164206707       -1.4045047203       -2.1038904181
 H          3.3843547799       -1.2077861904        1.3304894056
 H          1.8932680605       -1.7689756547        3.2231240027
 H         -0.4731836181       -2.3216471540        2.8124459019
 C         -1.7842213091       -2.4150278269        0.4346201429
 H         -2.2595849491       -2.6336981048        1.4002130091
 C         -1.9965149186       -3.6000623778       -0.4841799865
 C         -1.8220271218       -4.9825864489        0.0669677400
 C         -3.1911575242       -4.4801581174       -0.2774514166
 H         -3.6884230401       -4.8833301844       -1.1467870814
 H         -3.8618984506       -4.2297689577        0.5314255532
 H         -1.3764942036       -5.7354080298       -0.5648205410
 H         -1.5646342958       -5.0746885498        1.1111612371
 H         -1.6864438139       -3.4204078318       -1.5051298717
 O         -3.2129913296       -0.7100678879        2.1395779849
