  62
        -98.93395574
 C         -2.5704681714       -1.0827174086        0.0986671481
 C         -2.0736975440       -0.0665847946        0.9529448149
 C         -2.8375315456        1.1922649790        0.9479890313
 C         -4.0210782293        1.2630394262        0.3165691715
 C         -4.9160902671        2.4693689128        0.2347809853
 C         -4.5332751864        3.4481689614       -0.8838411541
 C         -3.2592758677        4.2571666299       -0.6346996722
 H         -3.3183893375        4.7353213246        0.3433811064
 H         -3.2314186336        5.0500171010       -1.3846937195
 C         -1.9600242284        3.4439194205       -0.7319340582
 H         -1.2277147400        3.9904828005       -1.3305897567
 H         -2.1535707107        2.5024970459       -1.2517464111
 C         -1.3006753805        3.1349714065        0.6129913293
 H         -0.9698145306        4.0647139666        1.0822109349
 H         -0.4126555848        2.5209631637        0.4297241804
 C         -2.2065299400        2.3851294312        1.5991524704
 H         -2.9697368717        3.0555401125        1.9947189100
 H         -1.5884841527        2.0261133117        2.4260491420
 H         -5.3636245929        4.1478333287       -1.0028968418
 H         -4.4318363991        2.8894270638       -1.8170019567
 H         -4.9173195373        2.9908379938        1.1922390324
 H         -5.9235997267        2.0969043707        0.0382701494
 O         -4.5661100722        0.1893957249       -0.3148118869
 C         -3.8447967523       -0.9852286914       -0.4722158691
 O         -4.4552648329       -1.8698317481       -1.0999971041
 O         -1.0692191868       -0.1760046863        1.7036799470
 C         -1.8101381432       -2.3660417774       -0.2213811268
 C         -0.5321649361       -2.5106530507        0.5618606019
 C         -0.4452035527       -3.3856430126        1.6358940978
 C          0.7350107576       -3.5076927134        2.3484452584
 C          1.8386577223       -2.7485595351        2.0107253076
 C          1.7642328090       -1.8758711843        0.9294367355
 C          0.5968794691       -1.7915767000        0.1916357340
 H          0.5499331211       -1.0987689010       -0.6317980608
 N          2.8856308789       -1.1040413319        0.5562912357
 S          2.7292953695        0.5520890337        0.2633056003
 O          2.5142963444        1.2709443211        1.5006038671
 O          1.7828376805        0.7834466207       -0.7973365285
 C          4.3777179764        0.8811104853       -0.3362190129
 C          5.2773227816        1.5742394827        0.4497757646
 C          6.5593954469        1.7928997025       -0.0306958863
 C          6.9186576885        1.3142507887       -1.2811887074
 C          6.0041043093        0.6199617007       -2.0597091273
 C          4.7212173120        0.3998166709       -1.5851022348
 H          3.9754801022       -0.1284102347       -2.1560872011
 H          6.2863756726        0.2501183892       -3.0323136716
 H          7.9168692664        1.4841486248       -1.6526469903
 H          7.2713921793        2.3339285881        0.5714999712
 H          4.9515418311        1.9316183000        1.4134389363
 H          3.6469651051       -1.2230993946        1.2136226993
 H          2.7510941592       -2.8213003424        2.5843602138
 H          0.7889540177       -4.1868378590        3.1863321960
 H         -1.3166780980       -3.9557708266        1.9267797813
 H         -2.4738036919       -3.2105411782        0.0185324944
 C         -1.4987140380       -2.4237725394       -1.7141433421
 C         -0.8446025751       -3.6519534479       -2.2781232820
 C         -2.2629837724       -3.3284084585       -2.6287132052
 H         -2.4866926563       -2.9721101862       -3.6229462902
 H         -3.0566082544       -3.9168784016       -2.1962918777
 H         -0.0841209472       -3.5284020520       -3.0337392921
 H         -0.6612289378       -4.4707097827       -1.5990963457
 H         -1.1906370553       -1.4663648796       -2.1230255996
