  62
        -98.94263543
 C         -1.6860049025       -1.3721838970       -0.0908789505
 C         -1.9115432548       -0.2530092470       -0.9292030155
 C         -3.3142281190        0.1765007639       -1.0596871507
 C         -4.2816648844       -0.5073625520       -0.4236034220
 C         -5.7390343981       -0.1491469125       -0.4331486701
 C         -6.0921553503        0.7722411935        0.7426036477
 C         -5.1504870403        1.9669444703        0.8943261195
 H         -4.1552992794        1.6061813354        1.1651300216
 H         -5.5144677802        2.5639495499        1.7333283851
 C         -5.0435269319        2.8531993337       -0.3545370107
 H         -5.0996213819        3.8996220062       -0.0472052844
 H         -5.8893061718        2.6645144153       -1.0167695071
 C         -3.7404677237        2.6905352915       -1.1399620455
 H         -2.8872413927        2.7875276366       -0.4629601472
 H         -3.6750234078        3.5080776711       -1.8632369511
 C         -3.5887709312        1.3780892115       -1.9195151983
 H         -2.7193437179        1.4824951322       -2.5755140322
 H         -4.4712734693        1.2151480656       -2.5417835635
 H         -6.0538739900        0.1875696643        1.6645556945
 H         -7.1151273683        1.1280953460        0.6076217145
 H         -5.9820859144        0.3371769673       -1.3757833638
 H         -6.3192826702       -1.0695593255       -0.3489092265
 O         -4.0297882258       -1.5936105781        0.3497769574
 C         -2.7347019189       -2.0374526160        0.5507066454
 O         -2.6468519417       -3.0285175710        1.3032552083
 H          1.1378246722        0.4064273261       -0.2745328974
 C          1.1015360002        0.1270182218        0.7657932129
 C          0.4082499199       -1.0069689416        1.1665822637
 C          0.3223527299       -1.2953350324        2.5262581965
 C          0.9173973966       -0.4719843672        3.4630575338
 C          1.6226972998        0.6477858769        3.0608630583
 C          1.7060513948        0.9518056973        1.7062811352
 N          2.4026535939        2.0910444868        1.2882503629
 S          3.1717792513        2.1709108951       -0.1873553476
 O          4.2079581012        3.1636435997        0.0189727926
 O          2.2381537414        2.4621020897       -1.2442325981
 C          3.9354067405        0.5805182520       -0.4540211509
 C          4.6585917797        0.0010180791        0.5694603479
 C          5.2995215873       -1.2050910844        0.3373620598
 C          5.2202990689       -1.8013635639       -0.9114732048
 C          4.4949328735       -1.2037843444       -1.9305607758
 C          3.8407920766       -0.0038326322       -1.7000694606
 H          3.2545835098        0.4891122268       -2.4595404846
 H          4.4379086938       -1.6641790969       -2.9045351792
 H          5.7254449818       -2.7371112527       -1.0920992729
 H          5.8620142753       -1.6734858818        1.1287380258
 H          4.7169286217        0.4926570799        1.5266249238
 H          2.9076934584        2.5824919142        2.0100560348
 H          2.0937675118        1.2920272643        3.7875442124
 H          0.8392553130       -0.7070939648        4.5136068058
 H         -0.2353842287       -2.1665713431        2.8391415525
 C         -0.2908020345       -1.9153044839        0.1836506509
 H         -0.4511134411       -2.8805850419        0.6828276517
 C          0.5108434142       -2.1651241991       -1.0757345139
 C          1.6203287231       -3.1704864044       -1.0316867718
 C          0.3574194230       -3.4807737963       -1.7760596203
 H          0.3812852455       -3.4942802573       -2.8553464370
 H         -0.3281772468       -4.1974893339       -1.3471307605
 H          1.7928323773       -3.6793504445       -0.0954545215
 H          2.5167354114       -2.9721157319       -1.5973363113
 H          0.6410328641       -1.2884009901       -1.6960905486
 O         -1.0064048979        0.3617725772       -1.5508989332
