  62
        -98.94571558
 C          2.3695398301        0.8429185088        0.3014723295
 C          2.1726996793       -0.0175752612       -0.8057862504
 C          2.5247024383       -1.4284153314       -0.5885485803
 C          2.9691273383       -1.8201248116        0.6193755196
 C          3.2944343674       -3.2361835718        0.9949521097
 C          2.0662473370       -3.9539460009        1.5726141800
 C          0.8042848569       -3.8097716100        0.7210191402
 H          0.0179590166       -4.3862726394        1.2127257505
 H          0.4856856477       -2.7645190198        0.7235897002
 C          0.9605053763       -4.2856729503       -0.7297796398
 H          0.0899425658       -4.8871040697       -0.9974720495
 H          1.8366136958       -4.9295043909       -0.8151624199
 C          1.0580812369       -3.1572244205       -1.7576161599
 H          0.9457120464       -3.5932537105       -2.7534768898
 H          0.2351832274       -2.4535497999       -1.6099240098
 C          2.3707616974       -2.3648826014       -1.7536769202
 H          3.2185063769       -3.0508113220       -1.8099531603
 H          2.3785929777       -1.7332264515       -2.6466120003
 H          1.8600223675       -3.5431142806        2.5638870600
 H          2.3095465863       -5.0116814710        1.6887369100
 H          3.6576031468       -3.7653616921        0.1161483096
 H          4.0827782276       -3.2202461223        1.7494742795
 O          3.1220187991       -0.9675292416        1.6658704995
 C          2.8252341701        0.3792965586        1.5349420894
 O          2.9968917507        1.0480156686        2.5756172293
 H          0.0437676907        1.3214434806        1.5826912899
 C         -0.3323718990        1.8869340308        0.7383238299
 C          0.5764722712        2.4946604400       -0.1203032103
 C          0.0866767215        3.2227135803       -1.1953986803
 C         -1.2784784685        3.3322994112       -1.4005440000
 C         -2.1796844587        2.7334523319       -0.5401393398
 C         -1.7004359490        2.0017370017        0.5404936502
 N         -2.5924567892        1.4147363024        1.4536917905
 S         -3.9464745699        0.5711594033        0.9608079508
 O         -4.8362300894        1.4638835239        0.2623610809
 O         -4.4606997101       -0.0330713262        2.1681959610
 C         -3.3714368811       -0.7014002972       -0.1473700692
 C         -3.0812908118       -1.9462776173        0.3756114109
 C         -2.6342638527       -2.9440350677       -0.4745140291
 C         -2.4731338928       -2.6774925580       -1.8256740392
 C         -2.7568270820       -1.4191283378       -2.3334707292
 C         -3.2134513611       -0.4192050674       -1.4895329192
 H         -3.4574884305        0.5648580227       -1.8534211893
 H         -2.6236492921       -1.2126885380       -3.3831792993
 H         -2.1267966135       -3.4554376983       -2.4874730492
 H         -2.4123953533       -3.9231552079       -0.0821251391
 H         -3.2296388617       -2.1139345471        1.4303915909
 H         -2.1372149294        0.9343718322        2.2154033904
 H         -3.2440821887        2.8272264927       -0.6820926695
 H         -1.6470018683        3.8996519114       -2.2417548100
 H          0.7712279717        3.7009275797       -1.8758460505
 C          2.0466161211        2.3218812690        0.1778341094
 H          2.2416685417        2.7588343190        1.1681809793
 C          2.9599896414        2.9822474983       -0.8326511709
 C          3.2571486425        4.4470811681       -0.7293792611
 C          4.3152805018        3.4417657674       -0.3898290012
 H          5.1482365316        3.3186527767       -1.0656428413
 H          4.5733755319        3.2988356873        0.6497469788
 H          3.3673389127        5.0176332079       -1.6391146811
 H          2.7996957330        4.9940815085        0.0812330790
 H          2.8805050809        2.5424637282       -1.8197237708
 O          1.7285020393        0.3677698791       -1.9174261004
