  62
        -98.93749446
 C         -2.2511183932       -0.7876623126        0.0870063895
 C         -3.5750901900       -1.2041862377        0.3810180937
 C         -4.6523094487       -0.4985190390       -0.3247314554
 C         -4.3367281857        0.4889804770       -1.1818871935
 C         -5.3324879758        1.3273199822       -1.9289098442
 C         -5.7012100118        2.5888317678       -1.1355732858
 C         -6.0751813806        2.3148151100        0.3211839871
 H         -5.1937875623        1.9465279191        0.8513109794
 H         -6.3445940259        3.2718904336        0.7730564820
 C         -7.2294936442        1.3194555520        0.5040897236
 H         -7.9177684462        1.7157448188        1.2535358372
 H         -7.7864227951        1.2230270671       -0.4285261791
 C         -6.8006998915       -0.0686115419        0.9834077843
 H         -6.1638533535        0.0286822262        1.8662110836
 H         -7.6973169702       -0.6160547536        1.2858221384
 C         -6.0643291184       -0.9328786359       -0.0479449217
 H         -5.9919641729       -1.9457624324        0.3588026684
 H         -6.6423028075       -0.9743337285       -0.9733655577
 H         -4.8445786538        3.2667966817       -1.1474627083
 H         -6.5332620793        3.0829861706       -1.6404206543
 H         -4.8870072265        1.6239146500       -2.8799883009
 H         -6.2238251337        0.7344804855       -2.1249607702
 O         -3.0588232370        0.8746753276       -1.4255857874
 C         -1.9832283991        0.2637234378       -0.7906335409
 O         -0.8794356016        0.7539008278       -1.0947286825
 O         -3.8426405743       -2.1212541177        1.2022296196
 C         -1.1185766214       -1.4990388941        0.8051393487
 C         -0.1188272590       -0.5006575759        1.3322674837
 C         -0.5465700014        0.4425160724        2.2633547665
 C          0.3257357631        1.3919268956        2.7573633305
 C          1.6437843882        1.4174801248        2.3374046774
 C          2.0857327739        0.4718088848        1.4195792740
 C          1.2063118177       -0.4826031437        0.9274609047
 H          1.5647595191       -1.1864186345        0.1966774432
 N          3.4375834718        0.4522616310        1.0305133228
 S          3.9102050780       -0.0314017780       -0.5139895826
 O          3.3331938839        0.8262289115       -1.5248131224
 O          3.6815992196       -1.4467154129       -0.6580344333
 C          5.6636454650        0.2753591681       -0.3855654602
 C          6.1950738782        1.4341882547       -0.9187035538
 C          7.5552720267        1.6694133095       -0.7917878836
 C          8.3565739778        0.7475251563       -0.1354392158
 C          7.8092012422       -0.4117806060        0.3940519264
 C          6.4503544756       -0.6530014905        0.2696547949
 H          5.9823126221       -1.5431296352        0.6561132956
 H          8.4359417687       -1.1274329580        0.9012293379
 H          9.4147783460        0.9323015656       -0.0386829351
 H          7.9836474677        2.5681696909       -1.2054289809
 H          5.5349574084        2.1171026779       -1.4292691179
 H          3.9193836362        1.3045005299        1.2848452457
 H          2.3242915477        2.1650494288        2.7163315039
 H         -0.0228635361        2.1239887147        3.4705687212
 H         -1.5804484257        0.4292880729        2.5821957346
 H         -1.6040095209       -1.9817495159        1.6706699685
 C         -0.4755263364       -2.6139825977       -0.0057653988
 C         -1.2394978211       -3.3578242297       -1.0586369967
 C         -0.1159728260       -2.4479677505       -1.4507623992
 H          0.8104186319       -2.8819294473       -1.7996189759
 H         -0.3501795928       -1.5042854627       -1.9192027169
 H         -1.0921307779       -4.4240775585       -1.1413593512
 H         -2.2502175714       -3.0375581052       -1.2660545468
 H          0.2102962949       -3.2053502653        0.5941237620
