  62
        -98.93773848
 C         -1.6526352763       -1.5233047024        0.3476478386
 C         -1.7677292536       -0.3383230377        1.1182697820
 C         -2.9297976454        0.5249249339        0.8475728952
 C         -3.8015636427        0.1573449381       -0.1073881567
 C         -5.0483401696        0.8762378600       -0.5455699719
 C         -4.7669255887        1.7987111101       -1.7432082561
 C         -4.2907859283        3.2020251386       -1.3711934324
 H         -4.0051770528        3.7059482507       -2.2974480454
 H         -5.1229865650        3.7610750955       -0.9383700918
 C         -3.1081076010        3.2452775391       -0.4002687057
 H         -2.3837796074        2.4786570401       -0.6796027925
 H         -2.6205404707        4.2158383229       -0.5114179932
 C         -3.5220589283        3.0560854945        1.0671098463
 H         -4.6064067112        3.1310679402        1.1445222111
 H         -3.1156827247        3.8720769761        1.6688556489
 C         -3.0491354075        1.7474288376        1.7164373156
 H         -2.0475730791        1.8839244029        2.1362378512
 H         -3.7078906757        1.5112085621        2.5590806257
 H         -4.0204855666        1.3101589862       -2.3747753055
 H         -5.6804248346        1.8951421648       -2.3335296318
 H         -5.7530495389        0.1039174973       -0.8613511658
 H         -5.4849349628        1.4283254594        0.2815261929
 O         -3.6228331204       -0.9583868968       -0.8641847955
 C         -2.5499821439       -1.8152197371       -0.6794331474
 O         -2.5308063886       -2.7664119657       -1.4843559933
 O         -0.9349963455       -0.0228680268        2.0100045995
 C         -0.4813103466       -2.4317305081        0.6813451428
 C          0.7110614944       -2.0840129649       -0.1757006614
 C          0.6886780949       -2.2538060683       -1.5558733477
 C          1.7841858966       -1.8992755485       -2.3225702762
 C          2.9202797519       -1.3708413319       -1.7330426359
 C          2.9485776540       -1.1927115327       -0.3569507592
 C          1.8488645703       -1.5504247755        0.4113716488
 H          1.8694717114       -1.3923937639        1.4811849473
 N          4.0975857305       -0.6371504156        0.2486224225
 S          4.4375694758        0.9543754459       -0.1549965233
 O          4.7932342902        1.0165445183       -1.5491660608
 O          5.4465370966        1.3846896458        0.7853814595
 C          2.9087692673        1.8241152909        0.1339078941
 C          2.6723218446        2.3563189802        1.3854543596
 C          1.4549985238        2.9680009003        1.6347684691
 C          0.4958685950        3.0260868202        0.6363054790
 C          0.7466584731        2.4808784936       -0.6127629110
 C          1.9633226707        1.8712527882       -0.8705631519
 H          2.1939251333        1.4386859181       -1.8306707054
 H         -0.0033752120        2.5239674769       -1.3868543880
 H         -0.4548551218        3.4952918429        0.8317679013
 H          1.2533677600        3.3891091012        2.6065893614
 H          3.4465247705        2.2929713678        2.1335364432
 H          4.0881798418       -0.7205481495        1.2561293165
 H          3.7751568467       -1.0748869149       -2.3193016895
 H          1.7540212757       -2.0350625124       -3.3932637978
 H         -0.2014379315       -2.6501418912       -2.0208243814
 H         -0.2208124630       -2.1910654645        1.7211006360
 C         -0.8004548988       -3.9106381896        0.6020179492
 C          0.0587754249       -4.8758810496        1.3602710279
 C         -1.3457174637       -4.6085547174        1.8100044212
 H         -2.0909380002       -5.3764433056        1.6670584349
 H         -1.4916732196       -4.0214950409        2.7051713194
 H          0.2820497844       -5.8301773166        0.9088068164
 H          0.8660121336       -4.4709525489        1.9519187531
 H         -1.1780516089       -4.2234062470       -0.3619364865
