  62
        -98.93860069
 C          1.6593198366        1.1804030796       -0.2661843369
 C          2.9923115365        1.3618279835        0.1735675437
 C          3.9519723101        0.3273210577       -0.2344292036
 C          3.5379549389       -0.6994523933       -0.9986915993
 C          4.3908803740       -1.8094878230       -1.5537685748
 C          5.0152000454       -2.7706427317       -0.5237018801
 C          6.4376467304       -2.3955373496       -0.0902145629
 H          6.8984537190       -1.7972560455       -0.8772174453
 H          7.0303537749       -3.3085006760       -0.0036583984
 C          6.5555187392       -1.6587551982        1.2474528692
 H          7.5620966986       -1.2397904620        1.3108391116
 H          6.4479312742       -2.3789981191        2.0617347381
 C          5.5386528970       -0.5425972281        1.4871230705
 H          5.8521271289        0.0205798399        2.3684256005
 H          4.5663396068       -0.9782853589        1.7293067965
 C          5.3508805447        0.4238802844        0.3012233919
 H          6.0780433443        0.2179527679       -0.4827574390
 H          5.4870534292        1.4544336497        0.6351758112
 H          5.0516163011       -3.7551978394       -0.9926541583
 H          4.3604225175       -2.8499649962        0.3436338961
 H          5.1824769996       -1.3700555056       -2.1649480440
 H          3.7338381353       -2.3758834627       -2.2168786774
 O          2.2464111577       -0.8316200326       -1.4074288001
 C          1.2750487051        0.0872449505       -1.0408675433
 O          0.1350004095       -0.1789947608       -1.4651080852
 O          3.3630089529        2.3427232217        0.8724688238
 C          0.6093288030        2.2026137137        0.1319377881
 C         -0.4483443323        1.5375477737        0.9774050616
 C         -0.0568672146        0.9233034535        2.1658153120
 C         -0.9808261156        0.2956708758        2.9772138695
 C         -2.3168946922        0.2581270047        2.6155047662
 C         -2.7185543247        0.8678096128        1.4343252782
 C         -1.7885468341        1.5112064118        0.6267359363
 H         -2.1316652649        1.9681751642       -0.2857519919
 N         -4.0739981289        0.8658830218        1.0509738837
 S         -4.5069674901        0.2008648589       -0.4249789812
 O         -3.8823711173        0.9305428403       -1.4960251388
 O         -5.9543151691        0.1993270835       -0.4117684480
 C         -3.9136462014       -1.4793670812       -0.3413360235
 C         -2.5836050043       -1.7476391239       -0.5940715041
 C         -2.1300152224       -3.0497096132       -0.4429841530
 C         -3.0016241478       -4.0510720033       -0.0451229918
 C         -4.3354780831       -3.7628756562        0.2031713284
 C         -4.7961504177       -2.4647844038        0.0595765809
 H         -5.8246760659       -2.1946936093        0.2373811753
 H         -5.0133943663       -4.5432756922        0.5094317938
 H         -2.6388086804       -5.0604298938        0.0699479719
 H         -1.0910431491       -3.2630392407       -0.6398927172
 H         -1.9159353912       -0.9605708429       -0.9084499051
 H         -4.6932872857        0.5072855566        1.7650778062
 H         -3.0425909951       -0.2345488519        3.2448889995
 H         -0.6607667142       -0.1724834393        3.8957067446
 H          0.9882988448        0.9494477497        2.4429793704
 H          1.1395509295        2.9321864622        0.7618462566
 C          0.0623672060        2.9197725508       -1.0831246419
 C         -0.5284736118        4.2891202348       -0.9374820566
 C          0.7960173126        4.1123489056       -1.6157976299
 H          0.8516298662        4.2478238969       -2.6855600874
 H          1.6864401147        4.4236593662       -1.0891300248
 H         -1.3867860275        4.5447643086       -1.5405227914
 H         -0.5384286054        4.7259469671        0.0497318696
 H         -0.3864296508        2.2479124307       -1.8066565753
