  62
        -98.94137271
 C          2.4360319864        1.2423248989        0.1040846529
 C          2.9391776801        0.3867686152        1.1192147744
 C          3.5840473289       -0.8506313358        0.6710635350
 C          3.6717589986       -1.1148384582       -0.6446137522
 C          4.3065429602       -2.3291251934       -1.2655550560
 C          3.3800317739       -3.5516221520       -1.3215232902
 C          3.1295561034       -4.2401427451        0.0207792690
 H          2.6596310156       -5.2013092640       -0.1968417578
 H          4.0839948872       -4.4455243816        0.5068028115
 C          2.2204461874       -3.4551433412        0.9770361779
 H          1.6624513966       -2.6994137986        0.4173642991
 H          1.4798872221       -4.1314441240        1.4105161062
 C          2.9513846536       -2.7810156433        2.1387212159
 H          3.3848037416       -3.5440571262        2.7892272856
 H          2.2178247243       -2.2168579221        2.7201474485
 C          4.0639651708       -1.8142148293        1.7138477991
 H          4.3646373914       -1.2329312911        2.5889462457
 H          4.9267657678       -2.3704382258        1.3481311338
 H          3.8378588683       -4.2768844234       -1.9984007388
 H          2.4241943161       -3.2477808464       -1.7563672490
 H          5.2173995818       -2.5853383694       -0.7236346152
 H          4.5745560315       -2.0525487448       -2.2875738032
 O          3.1914759149       -0.2658807211       -1.5895868534
 C          2.5388187072        0.9125021029       -1.2471231416
 O          2.1242720304        1.5516297561       -2.2345474650
 O          2.8601069707        0.6558943948        2.3472043785
 C          1.7335051603        2.5064034248        0.5729519676
 C          0.2577160520        2.2317925559        0.7068523010
 C         -0.4087175933        2.4015655973        1.9139544642
 C         -1.7513066496        2.0823080563        2.0290290934
 C         -2.4524375524        1.5795222722        0.9470567463
 C         -1.7930027190        1.4056954066       -0.2624960135
 C         -0.4543961837        1.7388245630       -0.3789922138
 H          0.0518445325        1.5941361337       -1.3227288190
 N         -2.4924355859        0.8450438723       -1.3625108992
 S         -2.6513398054       -0.8303814769       -1.2264199038
 O         -1.5011223705       -1.4170358719       -0.5732929254
 O         -2.9426381185       -1.3074640208       -2.5609028575
 C         -4.0961455182       -1.0065041902       -0.2034051449
 C         -5.3112059261       -0.6015519690       -0.7213935839
 C         -6.4439562868       -0.7094305821        0.0692715123
 C         -6.3423052726       -1.2174284160        1.3561905990
 C         -5.1151502087       -1.6208646596        1.8601961810
 C         -3.9775920905       -1.5150728845        1.0747112334
 H         -3.0010205349       -1.8095412999        1.4247015271
 H         -5.0378928205       -2.0147573456        2.8608236075
 H         -7.2249675511       -1.2993078278        1.9706261383
 H         -7.3999905508       -0.3969777507       -0.3187044836
 H         -5.3421489511       -0.2170430521       -1.7272034636
 H         -2.0301445778        1.0410167457       -2.2413698837
 H         -3.4959623710        1.3227539043        1.0299910471
 H         -2.2550870601        2.2188534776        2.9734845608
 H          0.1389427653        2.7664256835        2.7705092479
 H          2.1311902860        2.6857771255        1.5841311461
 C          2.0559393152        3.7309161489       -0.2717408352
 C          1.0359905002        4.4809427448       -1.0710065043
 C          1.5945681118        5.0854594833        0.1797003805
 H          2.2744279116        5.9195497756        0.0967897863
 H          0.9490717746        5.1230145307        1.0443221609
 H          1.3456145520        4.8768170105       -2.0263417855
 H          0.0145634190        4.1343575723       -1.0565963374
 H          3.0500524233        3.6746560951       -0.7029908519
