  62
        -98.94570347
 C         -0.9658835870       -1.2310423089       -0.3664482179
 C         -1.8985570854       -1.3161431353        0.6987090877
 C         -2.7003250393       -0.1169104370        0.9690382272
 C         -2.4850843284        0.9909237134        0.2374278674
 C         -3.2452507976        2.2773088088        0.3810393629
 C         -4.4652218365        2.3108197124       -0.5499720997
 C         -5.3348730700        1.0563941703       -0.4694931475
 H         -6.1819530541        1.2032669830       -1.1428925017
 H         -4.7660010827        0.2042198323       -0.8479257269
 C         -5.8518789347        0.7323712482        0.9390578304
 H         -6.9108507736        0.4739767485        0.8732259886
 H         -5.7729125503        1.6143691444        1.5756812238
 C         -5.1484716435       -0.4448439622        1.6174762269
 H         -5.7287016607       -0.7246659009        2.5008753080
 H         -5.1425488031       -1.3056596035        0.9441328831
 C         -3.7087145676       -0.1873358915        2.0810080982
 H         -3.6730749262        0.7187877991        2.6902820620
 H         -3.4035993089       -1.0307293140        2.7077449761
 H         -4.1130969350        2.4173053250       -1.5783498872
 H         -5.0647498498        3.1885568753       -0.3018861273
 H         -3.5601603727        2.3911719381        1.4167661690
 H         -2.5782548702        3.1021729271        0.1241199746
 O         -1.5704996924        1.0473768629       -0.7597933151
 C         -0.7880044679       -0.0516493690       -1.0914417240
 O          0.0013775251        0.1719671272       -2.0289037421
 H          1.4656072420       -0.2912924224       -0.1829226132
 C          1.8806632507       -1.1950877428        0.2315423500
 C          1.2070731331       -2.3978666655        0.0896775239
 C          1.7830147344       -3.5472246744        0.6209903528
 C          2.9955504643       -3.4862867543        1.2833005607
 C          3.6450560956       -2.2763933073        1.4545651024
 C          3.0768772131       -1.1226516119        0.9292541338
 N          3.6885783120        0.1305863456        1.0810432854
 S          2.7254197581        1.4718403582        1.3676589161
 O          3.6130724045        2.4127527106        2.0230281896
 O          1.5316111486        1.1237177137        2.1053612057
 C          2.3082222947        2.1212363908       -0.2339663283
 C          3.2098911430        2.0118425972       -1.2727443035
 C          2.8838406556        2.5684520672       -2.4984471136
 C          1.6743209583        3.2249955687       -2.6617479030
 C          0.7833521428        3.3311128153       -1.6065636961
 C          1.1026017641        2.7761585407       -0.3787672852
 H          0.4298227045        2.8167293456        0.4644405283
 H         -0.1641188128        3.8290080091       -1.7379107200
 H          1.4186511099        3.6493455052       -3.6199317848
 H          3.5704163716        2.4816494433       -3.3253431413
 H          4.1362861984        1.4851499065       -1.1136681614
 H          4.5201835257        0.1382246000        1.6540176543
 H          4.5780911157       -2.2224207977        1.9943678640
 H          3.4311782236       -4.3862675827        1.6897707833
 H          1.2672138370       -4.4907390421        0.5257864019
 C         -0.1217567868       -2.4636814166       -0.6296550573
 H         -0.6868905595       -3.3019249804       -0.1978279467
 C          0.1026851095       -2.7456244973       -2.1037608191
 C          0.2927176403       -4.1560218930       -2.5712193787
 C         -0.9742652128       -3.4237386253       -2.8944951842
 H         -1.1463621717       -3.1015100197       -3.9101497149
 H         -1.8747139955       -3.7069893753       -2.3685763418
 H          0.9969995605       -4.3412820802       -3.3673622195
 H          0.2435124479       -4.9440143660       -1.8355374923
 H          0.6680235065       -1.9677990217       -2.6004609631
 O         -2.0569804291       -2.3595817504        1.3907086395
