  62
        -98.94346704
 C         -1.8740795360       -0.7472039995       -0.7322536942
 C         -2.1653245480       -0.1025028824        0.4942882495
 C         -3.5856052985       -0.0585425848        0.8650130576
 C         -4.5051088517       -0.6297132875        0.0658786733
 C         -5.9869248684       -0.6884806909        0.3214806405
 C         -6.7467714687        0.5717793065       -0.1146400905
 C         -6.5304725746        1.8003911806        0.7697644558
 H         -7.2831145649        2.5374897897        0.4827991951
 H         -6.7163966515        1.5342873905        1.8107835662
 C         -5.1401476025        2.4377987215        0.6389327743
 H         -4.6611598016        2.0820196409       -0.2761302581
 H         -5.2440549134        3.5211378454        0.5454169992
 C         -4.2072554114        2.1722052976        1.8204979286
 H         -4.6132541798        2.6397073757        2.7202955382
 H         -3.2414651007        2.6360292859        1.6054283163
 C         -3.9633822646        0.6854136921        2.1102313268
 H         -3.1280369549        0.6038412411        2.8099811912
 H         -4.8474497092        0.2408290995        2.5668102585
 H         -7.8117805842        0.3283277988       -0.1076500435
 H         -6.4673697251        0.8093404688       -1.1437025456
 H         -6.1692618524       -0.8768484507        1.3798927688
 H         -6.3677501180       -1.5356729401       -0.2530946272
 O         -4.1791930698       -1.2590000083       -1.0953616998
 C         -2.8643402011       -1.3204481451       -1.5287057612
 O         -2.7077723594       -1.9122863867       -2.6167351373
 O         -1.2896726897        0.4047838340        1.2411632635
 C         -0.4379889782       -0.8306386609       -1.2144488727
 C          0.4258633602       -1.5214846288       -0.1871356954
 C         -0.0475595517       -2.6750651758        0.4330977041
 C          0.7155880655       -3.3343239583        1.3762737281
 C          1.9760999273       -2.8694261770        1.7081542273
 C          2.4653889210       -1.7289605288        1.0845794172
 C          1.6901580452       -1.0611569419        0.1456502178
 H          2.0887421490       -0.1795113408       -0.3272974806
 N          3.7317806691       -1.2243561457        1.4097883184
 S          4.7092778217       -0.5525652286        0.2331955839
 O          4.5449410565       -1.2124322105       -1.0409960615
 O          6.0406666429       -0.5969643186        0.8005571385
 C          4.1934690788        1.1476408115        0.1180027128
 C          3.8113764060        1.8166700465        1.2637169303
 C          3.4507433551        3.1513200160        1.1696418590
 C          3.4859565473        3.7939014110       -0.0585954221
 C          3.8786910874        3.1100543244       -1.1986015025
 C          4.2366579725        1.7736228278       -1.1120879348
 H          4.5370698461        1.2006120831       -1.9750714543
 H          3.9056923675        3.6112866022       -2.1533180046
 H          3.2040208127        4.8327038617       -0.1284584178
 H          3.1412710680        3.6851598241        2.0538087494
 H          3.7900787694        1.2876745530        2.2017251273
 H          4.2583179362       -1.7746915069        2.0719950463
 H          2.5742134292       -3.3838587454        2.4449182089
 H          0.3295937187       -4.2223181254        1.8542160946
 H         -1.0296566113       -3.0444420960        0.1695045138
 H         -0.4535396291       -1.4576502853       -2.1186843433
 C          0.0585478013        0.5511358608       -1.5884143782
 C          1.0874344595        0.7247462426       -2.6634378415
 C         -0.3345903375        1.1242992287       -2.9155653440
 H         -0.5723293462        2.1756787051       -2.9741855327
 H         -0.9361273706        0.5032125027       -3.5637171776
 H          1.8243107953        1.5048273877       -2.5458805311
 H          1.4627349591       -0.1650010909       -3.1467905539
 H          0.0871038419        1.2247807509       -0.7393741618
