  62
        -98.94281396
 C         -2.0020807495       -0.2960792199       -0.2117552499
 C         -2.7893082194        0.7523212807        0.3250280691
 C         -4.1555048295        0.3868912313        0.7321153193
 C         -4.5667218697       -0.8878966787        0.6168844404
 C         -5.9434628598       -1.3818398382        0.9521263806
 C         -6.8678529097       -1.3261647591       -0.2722901595
 C         -6.8405808794        0.0141194802       -1.0071527907
 H         -5.8511213293        0.1591511697       -1.4469314707
 H         -7.5519136693       -0.0539679204       -1.8331846107
 C         -7.1883717993        1.2259434910       -0.1313836918
 H         -7.8817646291        1.8665516407       -0.6804320624
 H         -7.7006904994        0.8945501419        0.7725768184
 C         -5.9898089792        2.0945568012        0.2547468876
 H         -6.3697039591        3.0272647716        0.6801133167
 H         -5.4204435990        2.3518197903       -0.6418918826
 C         -5.0258307994        1.4835312319        1.2793588482
 H         -4.3430856193        2.2736058121        1.6049056876
 H         -5.5857926195        1.1335609528        2.1487684085
 H         -6.5616602797       -2.1067299898       -0.9727701588
 H         -7.8864537697       -1.5438188187        0.0542129006
 H         -5.8643279100       -2.4166307579        1.2897482316
 H         -6.3546163198       -0.7774881474        1.7583994401
 O         -3.7734574698       -1.8760535893        0.1297523013
 C         -2.4900802297       -1.6033298399       -0.3083902288
 O         -1.8857718098       -2.5971550504       -0.7615877778
 H          1.6627806803       -1.5863057608       -0.5979867683
 C          1.5533146603       -0.9371883400        0.2575808511
 C          0.4451363604       -0.1101835798        0.3707996502
 C          0.3360238705        0.7117844812        1.4877692095
 C          1.3073229003        0.6899039219        2.4716305596
 C          2.4189951502       -0.1253524583        2.3478035905
 C          2.5447545402       -0.9388897793        1.2291950012
 N          3.6782106501       -1.7581665097        1.0470064020
 S          4.6153983103       -1.4552581210       -0.3095408681
 O          3.8619274704       -1.7480801720       -1.5007755380
 O          5.8284042102       -2.2157091311       -0.1096977773
 C          4.9665855906        0.2913096290       -0.2067482196
 C          6.1267476406        0.6999563194        0.4219811801
 C          6.3632221708        2.0560268795        0.5788955990
 C          5.4328657810        2.9757549992        0.1189437181
 C          4.2715898510        2.5491941488       -0.5067713217
 C          4.0321159108        1.1943063087       -0.6740663705
 H          3.1396581308        0.8313869185       -1.1568834603
 H          3.5455588411        3.2632179587       -0.8610539224
 H          5.6129734011        4.0313901693        0.2475967672
 H          7.2669969208        2.3906507197        1.0621438488
 H          6.8225489404       -0.0499537904        0.7623170809
 H          4.2752636300       -1.8085540091        1.8611673721
 H          3.1823098401       -0.1343637078        3.1113250806
 H          1.2043684104        1.3247967227        3.3383725090
 H         -0.5161141394        1.3673462315        1.5759114288
 C         -0.5874031794       -0.0990279706       -0.7312687999
 H         -0.3877071195       -0.9665692412       -1.3756172791
 C         -0.4269679091        1.1576276387       -1.5676191310
 C          0.6375237310        1.1967510176       -2.6207783509
 C         -0.8071681890        1.1247104675       -3.0154872810
 H         -1.2707100088        1.9991249872       -3.4468087018
 H         -1.1809692091        0.1917523772       -3.4129559802
 H          1.1667338212        2.1227082373       -2.7872490017
 H          1.2427256609        0.3118940873       -2.7604926901
 H         -0.6325593890        2.0665773392       -1.0176955418
 O         -2.3942180092        1.9387981608        0.4726685481
