  62
        -98.94334764
 C          2.3451834619        0.5442000358        0.1182781176
 C          3.3700364976        0.2999031191        1.0664360213
 C          4.3104235969       -0.7748272344        0.7330352979
 C          4.1379267414       -1.4844713696       -0.3969929046
 C          4.9921384821       -2.6334272867       -0.8598026861
 C          6.2581598207       -2.2058370245       -1.6148842015
 C          7.3571376906       -1.5918817195       -0.7467302758
 H          7.5705246002       -2.2563998950        0.0910663969
 H          8.2589418172       -1.5412486816       -1.3601365155
 C          7.0379174825       -0.1849068862       -0.2223051696
 H          7.9054792670        0.4630092605       -0.3664485461
 H          6.2188412575        0.2438360402       -0.8043434267
 C          6.6725113060       -0.1287177046        1.2610507100
 H          6.4311084062        0.9065557575        1.5151039508
 H          7.5330319044       -0.4306992088        1.8621393029
 C          5.4738750950       -1.0041036829        1.6499384423
 H          5.1606655523       -0.7282736095        2.6597889571
 H          5.7595684618       -2.0557212417        1.6472753343
 H          5.9755226433       -1.4993860600       -2.3987941451
 H          6.6637460891       -3.0962487858       -2.1007923008
 H          5.2681531640       -3.2521871765       -0.0055525409
 H          4.3729728660       -3.2280346629       -1.5348844765
 O          3.1209714876       -1.2415787938       -1.2650945418
 C          2.2127412594       -0.2153365924       -1.0441617817
 O          1.3596345193       -0.0932504401       -1.9438256997
 O          3.4904805239        0.9480462315        2.1398639560
 C          1.3495791517        1.6549660481        0.4087764650
 C         -0.0037253094        1.0377692961        0.6597567951
 C         -0.2522519457        0.4381951873        1.8918503155
 C         -1.4661163165       -0.1692135590        2.1500231328
 C         -2.4559985784       -0.2004654745        1.1826958832
 C         -2.2175122070        0.3914316602       -0.0496003249
 C         -1.0015422564        1.0147216942       -0.3014452033
 H         -0.8273621492        1.4611555159       -1.2677798178
 N         -3.2083277217        0.3416299710       -1.0441073192
 S         -4.7691679624        0.8107329859       -0.6537376761
 O         -5.3692285527        1.2165750290       -1.9060523404
 O         -4.7775264854        1.7900611910        0.4084515421
 C         -5.5459490175       -0.6932792691       -0.1013096401
 C         -5.5273775423       -1.7847268579       -0.9473826295
 C         -6.1367658505       -2.9596292367       -0.5371599856
 C         -6.7534351205       -3.0221882982        0.7037099034
 C         -6.7663728708       -1.9166641578        1.5401885274
 C         -6.1576395010       -0.7385625032        1.1360755326
 H         -6.1380705080        0.1444375042        1.7548433379
 H         -7.2465307499       -1.9673608349        2.5042158092
 H         -7.2267134769       -3.9382503455        1.0202361218
 H         -6.1281347870       -3.8216117337       -1.1847802377
 H         -5.0397864367       -1.6947213343       -1.9038882139
 H         -2.9171198565        0.7309534756       -1.9287490899
 H         -3.4036290064       -0.6770571514        1.3738800620
 H         -1.6443277035       -0.6265282627        3.1114049249
 H          0.5255535135        0.4516891939        2.6428106113
 H          1.6924286181        2.1113477729        1.3476184073
 C          1.3528006159        2.7129866636       -0.6743491154
 C          0.7169214352        4.0429256700       -0.4040546824
 C          2.2078767062        3.9312762788       -0.5050519242
 H          2.6982775685        4.3412893317       -1.3752625339
 H          2.7892064106        4.0115048063        0.4017188774
 H          0.1814476327        4.5325777931       -1.2034027568
 H          0.2829885876        4.1973076827        0.5724011404
 H          1.2697919612        2.3039953262       -1.6742889266
