  62
        -98.94454031
 C         -1.5080797183       -1.5070728225        0.2008382068
 C         -1.7345697482       -0.4666458300        1.1401898172
 C         -2.9760914946        0.3023792995        0.9840640399
 C         -3.7995996255        0.0112794527       -0.0398424052
 C         -5.0904967260        0.7187070601       -0.3334465764
 C         -4.8797802292        1.9124260137       -1.2746595940
 C         -3.7494754421        2.8438131124       -0.8389528106
 H         -2.8037147667        2.3028755710       -0.9091049302
 H         -3.7061125345        3.6646815002       -1.5574743925
 C         -3.9074853603        3.4117412277        0.5783219770
 H         -3.6850198900        4.4805958175        0.5555157021
 H         -4.9420377308        3.3040631885        0.9064176527
 C         -2.9798257128        2.7892354217        1.6237389836
 H         -1.9452971107        2.8374114663        1.2763048573
 H         -3.0414858925        3.3941109526        2.5326224833
 C         -3.2908689445        1.3416698662        2.0244138517
 H         -4.3371097783        1.2650402972        2.3299531462
 H         -2.6646565386        1.0980179683        2.8881427274
 H         -4.6464334298        1.5310356553       -2.2712733999
 H         -5.8144452665        2.4728097420       -1.3352791232
 H         -5.7685934960        0.0077380429       -0.8083837053
 H         -5.5317141576        1.0554493433        0.6030061599
 O         -3.5239547015       -0.9508782580       -0.9528669030
 C         -2.3877042542       -1.7430355672       -0.8570809270
 O         -2.3012381262       -2.5924824662       -1.7636520343
 O         -0.9394691044       -0.2073595082        2.0844430804
 C         -0.2801580566       -2.3744136955        0.4261463660
 C          0.8707760793       -1.9718942192       -0.4641166291
 C          0.8357028607       -2.1611592313       -1.8420969747
 C          1.9142879288       -1.7926071848       -2.6247710555
 C          3.0356491487       -1.2116059111       -2.0573960388
 C          3.0761308438       -1.0091192871       -0.6840322782
 C          2.0022594293       -1.4032971683        0.1026685357
 H          2.0535570463       -1.2442429814        1.1694833385
 N          4.1883565067       -0.4028596879       -0.0705118949
 S          3.8946079127        0.8949273556        0.9525153834
 O          5.1605897474        1.5907812276        1.0309636892
 O          3.3524053518        0.4263197492        2.2003684761
 C          2.7128895417        1.8742230654        0.0457439009
 C          1.3583439993        1.6877264151        0.2336585883
 C          0.4764868986        2.3699488232       -0.5898078610
 C          0.9516712221        3.2287149266       -1.5674352928
 C          2.3158905608        3.4169098801       -1.7308979987
 C          3.2050611673        2.7250973968       -0.9259422012
 H          4.2730266854        2.8388385648       -1.0204224622
 H          2.6853670760        4.0910069485       -2.4866481937
 H          0.2540260292        3.7531223206       -2.2011752960
 H         -0.5833383504        2.2127130559       -0.4616827195
 H          1.0003615271        1.0277997309        1.0085669384
 H          4.9356850714       -0.1773732677       -0.7122938836
 H          3.8728004170       -0.9173337053       -2.6719373798
 H          1.8777953647       -1.9499114763       -3.6920295948
 H         -0.0484177653       -2.5862595852       -2.2911589921
 H          0.0237057665       -2.1700698248        1.4624690860
 C         -0.5671433309       -3.8584421386        0.3007079222
 C          0.3662486808       -4.8316996612        0.9531666262
 C         -1.0100197044       -4.6240901069        1.5093234201
 H         -1.7430660247       -5.4066653322        1.3831904236
 H         -1.1079048057       -4.0810486323        2.4384210874
 H          0.5811470514       -5.7591860466        0.4452234636
 H          1.2022615030       -4.4287513108        1.5054773172
 H         -1.0027738361       -4.1371591875       -0.6494844993
