  62
        -98.94162492
 C          2.1204707030       -0.8312916138       -0.2844074426
 C          2.9746446745       -0.2087394026       -1.2297610119
 C          3.7510738987        0.9411171786       -0.7479745940
 C          3.5617124292        1.3786253025        0.5099074349
 C          4.3214184126        2.5032754371        1.1502232532
 C          5.5747243018        1.9862930708        1.8707083017
 C          6.4343181041        1.0499683819        1.0212015241
 H          7.3038684579        0.7737106575        1.6213235444
 H          5.8749210764        0.1321450492        0.8257888174
 C          6.9024426765        1.6513218829       -0.3113904230
 H          6.8086560499        2.7374260083       -0.2805749981
 H          7.9611941715        1.4208602932       -0.4466479976
 C          6.1693275118        1.1145893775       -1.5421903418
 H          6.1822555106        0.0217250900       -1.5286431677
 H          6.7170528768        1.4367675369       -2.4316734743
 C          4.7164285003        1.5778162590       -1.7078452164
 H          4.6668229730        2.6665329512       -1.6388415478
 H          4.3841244735        1.2811304222       -2.7071237325
 H          6.1702258282        2.8452616156        2.1851398279
 H          5.2600120034        1.4448506680        2.7658968347
 H          4.6005702151        3.2272766500        0.3869452995
 H          3.6680150438        2.9891087646        1.8770984305
 O          2.6741121406        0.8087540758        1.3631001721
 C          1.9360966512       -0.3122200854        0.9985486093
 O          1.1729700034       -0.7224180213        1.8916329274
 H         -0.2530639213       -0.0510654962       -1.4702915553
 C         -0.7934890982       -0.7595570840       -0.8530081355
 C         -0.1257018926       -1.8799035803       -0.3726429181
 C         -0.8242338012       -2.7726073877        0.4282229085
 C         -2.1524021625       -2.5396173452        0.7407941326
 C         -2.8119745840       -1.4233078799        0.2613821582
 C         -2.1211979474       -0.5206431576       -0.5368249832
 N         -2.7829646462        0.6141866859       -1.0398489373
 S         -3.6516865404        1.5722105154        0.0324344934
 O         -3.6885060396        2.8809371071       -0.5851955232
 O         -3.1129033403        1.5082819280        1.3709548462
 C         -5.2874786880        0.8691884154       -0.0074273595
 C         -5.9225895118        0.7660816647       -1.2296445314
 C         -7.1972924809        0.2248994889       -1.2774149460
 C         -7.8129063595       -0.1990037771       -0.1089695904
 C         -7.1635551691       -0.0848561165        1.1106732056
 C         -5.8876909775        0.4548524857        1.1653231757
 H         -5.3411280469        0.5582255074        2.0894219116
 H         -7.6434794316       -0.4141012476        2.0182863924
 H         -8.8048593873       -0.6205324471       -0.1489494819
 H         -7.7056279076        0.1349253309       -2.2238564841
 H         -5.4105670874        1.1108402682       -2.1123784050
 H         -2.1999320963        1.1909514432       -1.6293743518
 H         -3.8438636556       -1.2364231559        0.5097825006
 H         -2.6813235677       -3.2375035558        1.3718377171
 H         -0.3223540994       -3.6365556379        0.8313120391
 C          1.3266593569       -2.0410151746       -0.7456200424
 H          1.3962632448       -2.0047456679       -1.8462055141
 C          1.9190376638       -3.3767364698       -0.3226592475
 C          3.3886020691       -3.5210290702       -0.0659097494
 C          2.4157545501       -3.6333194914        1.0673935019
 H          2.2458303267       -4.6087089312        1.4995119104
 H          2.3527439667       -2.8244850579        1.7781274037
 H          3.8856044979       -4.4148881641       -0.4117912623
 H          3.9972837577       -2.6305409563       -0.1301795273
 H          1.4384720740       -4.2087799634       -0.8280305676
 O          3.0777064204       -0.5947343325       -2.4252670165
