  62
        -98.93918895
 C         -1.3108123786       -0.9404324302        0.4133932313
 C         -2.3064057986       -0.9054972906       -0.5915828188
 C         -3.2102664887        0.2612728294       -0.5811113992
 C         -3.0430071188        1.2303200597        0.3364470405
 C         -3.7737001789        2.5408327197        0.5411789000
 C         -5.1565060789        2.7676252194       -0.0662636201
 C         -6.2574546588        1.8578922095        0.4760964201
 H         -6.4394329489        2.1137066798        1.5230557900
 H         -7.1738320888        2.0668257993       -0.0805701800
 C         -5.9689715387        0.3598764595        0.4099121206
 H         -6.8484821487       -0.1661289904        0.7914970507
 H         -5.1380387387        0.1159570798        1.0752878107
 C         -5.6671585186       -0.1888312809       -0.9838861792
 H         -6.4677124586        0.0924230888       -1.6707146193
 H         -5.6579497685       -1.2795792009       -0.9101043488
 C         -4.3202741286        0.2439520090       -1.5916991093
 H         -4.0383376985       -0.4945340812       -2.3473552890
 H         -4.3997976186        1.2071141188       -2.0896855896
 H         -5.1106699188        2.6976098791       -1.1490118801
 H         -5.4336719589        3.7980218195        0.1730099596
 H         -3.1039885989        3.3230132496        0.1665774298
 H         -3.8337661889        2.6780229900        1.6254333300
 O         -2.0470758088        1.1683169600        1.2688331206
 C         -1.1867221687        0.0894595601        1.3476462609
 O         -0.3640160188        0.1638300605        2.2835009110
 O         -2.4574218585       -1.7924831509       -1.4711593685
 C         -0.3034929886       -2.0729154701        0.5464103017
 C          0.8102085815       -1.8819058403       -0.4557342283
 C          0.6277480016       -2.1228430608       -1.8136727783
 C          1.6636678316       -1.9122666210       -2.7048624483
 C          2.8913306515       -1.4473112807       -2.2667807384
 C          3.0827039415       -1.1990500103       -0.9128427884
 C          2.0462450014       -1.4270336201       -0.0179674084
 H          2.2107799314       -1.2388599297        1.0322636315
 N          4.3210733714       -0.7357851701       -0.4391406285
 S          4.3840976813        0.4685216503        0.7205035611
 O          5.7443582312        0.9568911104        0.6476772210
 O          3.9666553912       -0.0501380193        1.9970208713
 C          3.2650174812        1.7257390100        0.1317160307
 C          1.9818216412        1.8133600001        0.6296809406
 C          1.1250333611        2.7671089699        0.1011765202
 C          1.5606879311        3.6114049396       -0.9072151700
 C          2.8568934612        3.5146753295       -1.3921289399
 C          3.7163177712        2.5617156498       -0.8724905096
 H          4.7346766712        2.4626247697       -1.2120367895
 H          3.1961322012        4.1771664293       -2.1720264401
 H          0.8874824811        4.3498626094       -1.3135437903
 H          0.1195363811        2.8330028699        0.4878945201
 H          1.6552820112        1.1518571703        1.4169463908
 H          5.0074753914       -0.5739072903       -1.1620247185
 H          3.6970915716       -1.2797885409       -2.9650946684
 H          1.5112380017       -2.1047787313       -3.7560423782
 H         -0.3369071484       -2.4530833209       -2.1648836482
 H          0.1333429014       -1.9640300497        1.5487782017
 C         -0.9307396285       -3.4490248701        0.4491543921
 C         -0.1767133584       -4.6246108599        0.9904510125
 C         -1.3997624585       -4.1268369498        1.6995422423
 H         -2.3002579384       -4.7210828098        1.6572990524
 H         -1.2684938686       -3.6007403095        2.6345223021
 H         -0.2354609583       -5.5632514101        0.4613783528
 H          0.7845017516       -4.4350564597        1.4450750725
 H         -1.5225758384       -3.5961015705       -0.4439097279
