  62
        -98.94044967
 C         -2.3738982373       -0.7332279313       -0.1273500420
 C         -3.5383431218       -1.0635158993        0.6060199198
 C         -4.8086100031       -0.5879692875        0.0430278481
 C         -4.7973135282        0.1023674913       -1.1122214221
 C         -6.0113058722        0.6932782168       -1.7676697767
 C         -6.2512498621        2.1342825617       -1.2957005095
 C         -6.2150801693        2.3007406116        0.2234787815
 H         -5.2026451508        2.0969374513        0.5797048820
 H         -6.4265724552        3.3499425901        0.4407851516
 C         -7.2082926072        1.4108297718        0.9837950501
 H         -7.7052285255        2.0134221199        1.7469877177
 H         -7.9797445558        1.0505508154        0.3024070944
 C         -6.5715824594        0.2198008690        1.7023618808
 H         -7.3176831990       -0.2095752382        2.3762783000
 H         -5.7369814361        0.5659630023        2.3173761804
 C         -6.0665409081       -0.9124394900        0.7990208830
 H         -5.8185290435       -1.7633037649        1.4402816697
 H         -6.8596681243       -1.2184747730        0.1139766340
 H         -7.2188233125        2.4656045247       -1.6769278831
 H         -5.4777334289        2.7729916413       -1.7282566613
 H         -6.8777529949        0.0758599826       -1.5390157651
 H         -5.8519178116        0.6954700449       -2.8471437137
 O         -3.6596106969        0.3856881661       -1.7971586697
 C         -2.4193738186       -0.0143071444       -1.3215954434
 O         -1.4600914385        0.3236296797       -2.0406019380
 O         -3.5150671899       -1.7198606472        1.6823720536
 C         -1.0245055970       -1.1855909222        0.3973352197
 C         -0.1102067463       -0.0046200001        0.6112155579
 C         -0.5926250025        1.1110362969        1.2918813273
 C          0.2180847938        2.2051146282        1.5211174376
 C          1.5349599981        2.2045216698        1.0952638317
 C          2.0281885719        1.0956402340        0.4194487817
 C          1.2060757829        0.0025703886        0.1795020458
 H          1.6173026376       -0.8414010351       -0.3481066417
 N          3.3541213439        1.0678291520       -0.0411607370
 S          4.1814833629       -0.4037526661       -0.0205239958
 O          3.8696670145       -1.1368298435       -1.2214881784
 O          3.9406295129       -1.0899282254        1.2286957039
 C          5.8672899120        0.1750485436       -0.0913726097
 C          6.6004119597        0.2738910185        1.0761561207
 C          7.9004076129        0.7506591332        1.0132188882
 C          8.4411255717        1.1214235740       -0.2087473950
 C          7.6931887901        1.0162232720       -1.3722409616
 C          6.3933911309        0.5388944099       -1.3167617195
 H          5.7775915527        0.4310078454       -2.1945594161
 H          8.1179685564        1.3028757599       -2.3207270047
 H          9.4528754700        1.4921901820       -0.2553603135
 H          8.4854940464        0.8303856116        1.9152296445
 H          6.1413473973       -0.0342911597        2.0017427429
 H          3.9172028664        1.8206039120        0.3302706096
 H          2.1709297481        3.0572351004        1.2784532290
 H         -0.1744779817        3.0639825467        2.0447703787
 H         -1.6180245473        1.1074977301        1.6366976678
 H         -1.2279957989       -1.6382798558        1.3802393479
 C         -0.4353504695       -2.2462695224       -0.5085382045
 C          0.5124949132       -3.2684720521        0.0415135031
 C         -0.8762866742       -3.6695676628       -0.3530870305
 H         -1.0083685000       -4.2685890100       -1.2415089229
 H         -1.5884015989       -3.8842072928        0.4303449961
 H          1.3413419939       -3.5844746506       -0.5748846383
 H          0.7509361011       -3.2139907435        1.0933973769
 H         -0.2616174979       -1.8826618613       -1.5159762195
