  62
        -98.93772603
 C         -1.9740765146       -1.0158549904        0.0535556469
 C         -2.3050623307       -0.0508352123        1.0315329519
 C         -2.4335902957        1.3346260684        0.5589142836
 C         -2.2051183753        1.6059025734       -0.7391841865
 C         -2.3495569518        2.9553090809       -1.3845949183
 C         -3.8400201487        3.2772772209       -1.6156686975
 C         -4.3627026289        4.4611876935       -0.8017470284
 H         -5.4517936523        4.4561953619       -0.8800672557
 H         -4.0028369454        5.3881452596       -1.2528040452
 C         -3.9693741879        4.4773136959        0.6784158647
 H         -4.6148730765        5.2070971592        1.1716042456
 H         -2.9471499705        4.8439562345        0.7831583277
 C         -4.0859617130        3.1380713859        1.4174450320
 H         -4.8075174270        2.4869374300        0.9238519986
 H         -4.4687228563        3.3355815768        2.4207124346
 C         -2.7549221897        2.3820227695        1.5894249477
 H         -2.7809212431        1.8381573395        2.5387031268
 H         -1.9286230449        3.0969024569        1.6480290736
 H         -4.4218454185        2.3843865960       -1.3780884967
 H         -4.0058769494        3.4885477728       -2.6730268610
 H         -1.8137390908        2.9165777480       -2.3333569783
 H         -1.8843401833        3.7109519035       -0.7551312808
 O         -1.8877319293        0.6506281451       -1.6510212225
 C         -1.7413441860       -0.6755935502       -1.2787987670
 O         -1.4259041644       -1.4410330360       -2.2103562965
 O         -2.4809103423       -0.3366070555        2.2488550084
 C         -1.7568666577       -2.4563548400        0.4796113299
 C         -0.3372671923       -2.8601515122        0.1626770837
 C          0.0067675600       -4.0839555514       -0.3963721644
 C          1.3275343480       -4.3669851050       -0.7002489831
 C          2.3245820721       -3.4382071579       -0.4680795573
 C          1.9925936632       -2.2184870055        0.1120373965
 C          0.6754392645       -1.9509162725        0.4419139258
 H          0.4308154123       -0.9985944518        0.8913103486
 N          2.9792407774       -1.2537397382        0.3861581763
 S          2.5534833493        0.3747407474        0.2361942606
 O          1.9213265839        0.8030804541        1.4602092203
 O          1.8116869209        0.5977467972       -0.9844128194
 C          4.1750630710        1.1093175972        0.1204362911
 C          4.6712088047        1.4734959794       -1.1167805058
 C          5.9456181084        2.0134807198       -1.1956418895
 C          6.6991861598        2.1750692692       -0.0428253858
 C          6.1876761935        1.8045580079        1.1922279489
 C          4.9137490645        1.2659630084        1.2783299210
 H          4.4692665928        0.9721209329        2.2148395075
 H          6.7754488326        1.9337626318        2.0865877451
 H          7.6904876403        2.5949438226       -0.1072058653
 H          6.3439945929        2.3049058839       -2.1540750886
 H          4.0448783347        1.3343068051       -1.9835866222
 H          3.8530732426       -1.4479467599       -0.0846939100
 H          3.3494652760       -3.6506144477       -0.7317376407
 H          1.5806467929       -5.3184389830       -1.1429037806
 H         -0.7606361390       -4.8102881922       -0.6083916635
 H         -1.8829955430       -2.4619056437        1.5731385080
 C         -2.7979154455       -3.3656586175       -0.1386633323
 C         -3.2413226994       -4.6061896771        0.5763159334
 C         -4.1615252714       -3.4278803711        0.4795004811
 H         -5.0200121261       -3.4923858971       -0.1719239240
 H         -4.3290325109       -2.8324955568        1.3652595094
 H         -3.4724516116       -5.4834041864       -0.0088910706
 H         -2.7911446455       -4.8182289083        1.5342577913
 H         -2.7363075661       -3.3876834848       -1.2210067069
