  62
        -98.93071215
 C         -2.3865797168       -1.2725000598       -0.0650487751
 C         -2.3116969691        0.0870956187        0.3160578482
 C         -3.5960865692        0.7844285982        0.5508206721
 C         -4.7449412965        0.0936100003        0.4381062829
 C         -6.1574239792        0.5948160546        0.5822076440
 C         -6.6272988117        1.3984288704       -0.6408596545
 C         -5.6139736718        2.4076338117       -1.1742732075
 H         -4.6932362522        1.8856981674       -1.4419802281
 H         -6.0226148761        2.8339618011       -2.0942861760
 C         -5.2862590440        3.5619151674       -0.2300405273
 H         -6.2053973550        4.1014962038        0.0087212376
 H         -4.6300607279        4.2473365352       -0.7726510500
 C         -4.5921727972        3.1799693892        1.0793137169
 H         -5.3001925648        2.7728151289        1.7960611122
 H         -4.1996838701        4.1011151844        1.5199586985
 C         -3.4043207213        2.2360803187        0.9192995309
 H         -2.7147810017        2.6494946570        0.1737547928
 H         -2.8356458281        2.2269037101        1.8572946083
 H         -7.5537620496        1.9126911904       -0.3801541250
 H         -6.8477159246        0.6921158635       -1.4450224972
 H         -6.2557430060        1.1802333645        1.4913638159
 H         -6.7930676957       -0.2875672226        0.6835288588
 O         -4.7644304480       -1.2330614893        0.1204968711
 C         -3.6093245893       -1.9441245569       -0.1331597149
 O         -3.7937566198       -3.1500369808       -0.3926880716
 O         -1.2309205481        0.7178096416        0.4573991313
 C         -1.1452174436       -2.0932711777       -0.3679393605
 C         -0.0645835039       -1.8085137688        0.6461916315
 C         -0.3219740574       -2.0821232255        1.9871353056
 C          0.6284950363       -1.8222899245        2.9545749638
 C          1.8578108725       -1.2927317347        2.6049062123
 C          2.1316257868       -1.0314642593        1.2671593286
 C          1.1740922164       -1.2938067926        0.2977417616
 H          1.3991604871       -1.0540245237       -0.7270629083
 N          3.3983665269       -0.5472608764        0.8958857014
 S          3.6326579012        0.3780395079       -0.4918052487
 O          2.8593741178        1.5983527770       -0.4453059027
 O          3.4475965210       -0.4587368448       -1.6508315449
 C          5.3674478625        0.7491168262       -0.2990690976
 C          5.7531228973        1.9894067681        0.1723940810
 C          7.1035623779        2.2537602338        0.3399305284
 C          8.0404707028        1.2773953489        0.0373054715
 C          7.6385613712        0.0373067794       -0.4368534423
 C          6.2902540784       -0.2324144568       -0.6079609489
 H          5.9315236163       -1.1770163480       -0.9819928877
 H          8.3702008756       -0.7181291108       -0.6740524553
 H          9.0906006360        1.4852887579        0.1687964489
 H          7.4187573224        3.2181598601        0.7045790196
 H          4.9894261768        2.7198629520        0.3868042811
 H          3.9040770013       -0.1501739533        1.6760146309
 H          2.5983939309       -1.0814941488        3.3613741681
 H          0.4098380379       -2.0275924163        3.9919741170
 H         -1.2881616127       -2.4855228314        2.2606871737
 H         -1.4597684690       -3.1427186936       -0.2378084656
 C         -0.6601409900       -1.9605084287       -1.8041505811
 C         -1.6062796755       -1.6475667592       -2.9234577042
 C         -0.5855933351       -0.6362377701       -2.5003652729
 H          0.2592357264       -0.4454832157       -3.1470486609
 H         -0.9120311667        0.2340863530       -1.9525263337
 H         -1.4691087403       -2.1553563991       -3.8662082847
 H         -2.6410939470       -1.4675623180       -2.6701836410
 H          0.1309682558       -2.6692483132       -2.0315467371
