  62
        -98.94380830
 C         -2.0878628716       -0.8551871073        0.2751618483
 C         -1.7407711350       -1.9780585494       -0.5134422829
 C         -0.6405941228       -2.8095639556       -0.0075961106
 C         -0.0591068605       -2.4876865243        1.1618292745
 C          1.1720231061       -3.1328882870        1.7300508195
 C          2.4151376698       -2.5734390211        1.0066517610
 C          3.1821318575       -3.6060179179        0.1802585694
 H          3.8900940856       -3.0563484471       -0.4441992250
 H          3.7573724237       -4.2472121934        0.8522016348
 C          2.3284788846       -4.5094314186       -0.7152473926
 H          3.0069886102       -4.9827226409       -1.4283447123
 H          1.8935073557       -5.3129986979       -0.1182257403
 C          1.2048290677       -3.8138352291       -1.4953607508
 H          1.4257054851       -2.7536831438       -1.6329677921
 H          1.1558183698       -4.2586806530       -2.4919436110
 C         -0.1941679005       -3.9599640695       -0.8645390321
 H         -0.2466693966       -4.8910677529       -0.2932310592
 H         -0.9348575374       -4.0209991448       -1.6673816543
 H          2.0985130851       -1.7570668257        0.3525246705
 H          3.1006527437       -2.1410862636        1.7377917399
 H          1.2099813202       -2.8914408689        2.7924893643
 H          1.1140545769       -4.2129038092        1.6167721913
 O         -0.4750571933       -1.4499794307        1.9315245604
 C         -1.4612456928       -0.5790633964        1.4884894239
 O         -1.6784559584        0.3781119185        2.2562282713
 O         -2.3132036535       -2.2559645136       -1.6029186471
 C         -3.0611623703        0.1681887796       -0.2848138107
 C         -2.2904299007        1.4459634395       -0.5240227939
 C         -2.6984604066        2.6969405456       -0.0815716776
 C         -1.8978731738        3.8074498845       -0.2917344422
 C         -0.6746443219        3.6931029595       -0.9264324550
 C         -0.2633260723        2.4469191294       -1.3872481436
 C         -1.0824419428        1.3452973043       -1.2052343968
 H         -0.7544465186        0.3830313439       -1.5706105554
 N          0.9726111716        2.2812235770       -2.0434054702
 S          2.0716142847        1.1590091028       -1.4665800879
 O          3.2445406162        1.3358310571       -2.2944137883
 O          1.4875383337       -0.1566440643       -1.4588796339
 C          2.4383843311        1.6812870361        0.1973176131
 C          1.5185434037        1.4167355409        1.1910499545
 C          1.7740509284        1.8589911692        2.4789823850
 C          2.9416290659        2.5558393584        2.7496060277
 C          3.8568385179        2.8152439013        1.7398442568
 C          3.6036400461        2.3791645205        0.4493417459
 H          4.2872661017        2.5535852818       -0.3657639835
 H          4.7642640245        3.3563952554        1.9545014519
 H          3.1376552618        2.8970143617        3.7538648201
 H          1.0495608630        1.6513659388        3.2507364671
 H          0.6183011439        0.8721624279        0.9556353473
 H          1.4529991623        3.1494312992       -2.2352756709
 H         -0.0426424427        4.5568194005       -1.0674799135
 H         -2.2243568436        4.7737341859        0.0612078635
 H         -3.6372820282        2.8014044501        0.4367190270
 H         -3.3798463283       -0.2312558414       -1.2590354666
 C         -4.2773062168        0.3378363916        0.5980895047
 C         -5.5731307250        0.8061468785        0.0077956153
 C         -5.4210756534       -0.6181729467        0.4470851635
 H         -5.9402213627       -0.9445403308        1.3356014045
 H         -5.3318268942       -1.3826553477       -0.3110877223
 H         -6.2022160376        1.4575749849        0.5953182189
 H         -5.5950276373        1.0088166218       -1.0523697965
 H         -4.0234210304        0.6587014030        1.6016123618
