  62
        -98.93669176
 C          1.8291876401        0.5265859703        0.2072519001
 C          2.9533860801        0.5772840800        1.0629332202
 C          4.2666383502        0.7065815399        0.4105372404
 C          4.3315859503        0.7737883701       -0.9304995096
 C          5.5521103604        0.9377407501       -1.8014972395
 C          6.7960483102        0.1138512198       -1.4403372696
 C          6.5082719299       -1.2620023203       -0.8217248998
 H          5.4504668999       -1.5079312701       -0.9300640100
 H          7.0756432299       -2.0206613103       -1.3641280199
 C          6.9039417798       -1.3473513806        0.6544902302
 H          7.0251144396       -2.3989665707        0.9257231900
 H          7.8741052299       -0.8629789308        0.7852135904
 C          5.9052891998       -0.7389327806        1.6384722002
 H          5.0074652897       -1.3611815905        1.6883833100
 H          6.3593161097       -0.7553666909        2.6322925303
 C          5.4579405901        0.6981030495        1.3249073404
 H          5.1236460701        1.1561193094        2.2598711905
 H          6.2784962502        1.2878139794        0.9237033906
 H          7.3673595903       -0.0141666601       -2.3612843495
 H          7.4255602803        0.6836488496       -0.7582873494
 H          5.2186398304        0.6746543103       -2.8081501096
 H          5.8185159905        1.9985151000       -1.8177208993
 O          3.2190115103        0.7302397104       -1.7173281197
 C          1.9479692303        0.6019769905       -1.1796273599
 O          1.0327702503        0.5678040108       -2.0229806199
 O          2.8649808600        0.5201614797        2.3194434202
 C          0.4470718401        0.3862897404        0.8148756100
 C         -0.2482079701       -0.8523641794        0.3056139197
 C          0.4810183497       -2.0266696695        0.1365881395
 C         -0.1257296504       -3.1775560793       -0.3257024107
 C         -1.4806620604       -3.1909899090       -0.6061828908
 C         -2.2234426002       -2.0325281889       -0.4212815307
 C         -1.6062457301       -0.8717775591        0.0260780696
 H         -2.2018727899        0.0159507309        0.1602096897
 N         -3.5992582302       -2.0109465287       -0.6955405008
 S         -4.6401079102       -1.2477537687        0.3705265293
 O         -4.1509197203       -1.3090963390        1.7278203193
 O         -5.9267287702       -1.8675057184        0.1313951190
 C         -4.7144376998        0.4422947814       -0.1830136704
 C         -4.8037625098        1.4495732813        0.7569785697
 C         -4.9186706195        2.7621871814        0.3257236000
 C         -4.9414658193        3.0426077216       -1.0315968200
 C         -4.8517525294        2.0189095918       -1.9628600802
 C         -4.7419703197        0.7044261917       -1.5384609804
 H         -4.6692350898       -0.1140976982       -2.2348039705
 H         -4.8668301593        2.2412109120       -3.0177522801
 H         -5.0284916192        4.0646500817       -1.3652957098
 H         -4.9887217994        3.5590216312        1.0493104801
 H         -4.7698289599        1.1879468711        1.8025770497
 H         -3.9800023703       -2.8889840585       -1.0175949510
 H         -1.9582552905       -4.0904062089       -0.9644820410
 H          0.4582094795       -4.0756421794       -0.4616167908
 H          1.5379787197       -2.0233366197        0.3661027396
 H          0.6135070900        0.2592189602        1.8959286100
 C         -0.3481717497        1.6567138806        0.5937294501
 C         -1.3559536897        2.1118795605        1.6050402101
 C         -0.0580053496        2.8457974004        1.4582984904
 H         -0.0670402894        3.8264535504        1.0072357006
 H          0.6903696503        2.7254205401        2.2280518004
 H         -2.2563131196        2.5904645508        1.2506174502
 H         -1.4993103099        1.4970067404        2.4811717400
 H         -0.5564706396        1.8372337608       -0.4550836998
