  62
        -98.94178764
 C         -2.5388701354       -0.3013141007        0.0193667188
 C         -2.2691693269       -1.3415601569       -0.8965571982
 C         -1.5765183852       -2.5275996547       -0.3635729176
 C         -1.2443683262       -2.5540837593        0.9391521397
 C         -0.4584546749       -3.6081930256        1.6697272923
 C          1.0416123441       -3.2639557207        1.6509070591
 C          1.8134232354       -3.8387048561        0.4648217522
 H          2.8349811792       -3.4561837475        0.5270865291
 H          1.8590599448       -4.9266683663        0.5565565292
 C          1.2451271031       -3.4833111940       -0.9110973441
 H          0.9757963647       -2.4245949526       -0.9341048460
 H          2.0401147454       -3.6209481138       -1.6474375277
 C          0.0424746728       -4.3507247904       -1.3117312554
 H          0.2105124267       -4.7595540854       -2.3105986823
 H         -0.0257552324       -5.2027795579       -0.6354073930
 C         -1.3050174404       -3.6202479749       -1.3625860526
 H         -2.1119547450       -4.3585994184       -1.2924591122
 H         -1.4132769555       -3.1334893847       -2.3374027898
 H          1.1383639399       -2.1744894654        1.6525466872
 H          1.4999165316       -3.6384630830        2.5689316751
 H         -0.6439801108       -4.5932784598        1.2515876788
 H         -0.8083845546       -3.5925695313        2.7039912263
 O         -1.5536898940       -1.5422357356        1.7963256257
 C         -2.1653528563       -0.3833968829        1.3606900841
 O         -2.3404582188        0.4746930011        2.2480969441
 O         -2.5836767612       -1.2765042100       -2.1184021405
 C         -3.1234555735        1.0052481358       -0.4888596970
 C         -2.1148375616        2.1002700395       -0.2355933899
 C         -2.4285269193        3.3423303738        0.2992826195
 C         -1.4249403672        4.2573707108        0.5712870676
 C         -0.0970585606        3.9488157052        0.3405469855
 C          0.2239570786        2.7154580281       -0.2164252775
 C         -0.7857340906        1.8229367771       -0.5285887162
 H         -0.5256781302        0.8700894884       -0.9664441364
 N          1.5579219922        2.3502274397       -0.4757987045
 S          1.9501850155        0.7132359331       -0.2969598820
 O          1.6160162410        0.0275531420       -1.5199649671
 O          1.3787516949        0.1862133099        0.9209412663
 C          3.7237177141        0.8246129144       -0.1496155842
 C          4.3078111672        0.7721448879        1.1015859018
 C          5.6851705449        0.8912045094        1.2041246451
 C          6.4498246403        1.0642042562        0.0602558164
 C          5.8492510024        1.1136290257       -1.1892123804
 C          4.4731165228        0.9929309303       -1.2987958446
 H          3.9615818112        1.0146744761       -2.2468496012
 H          6.4471529487        1.2446341128       -2.0765712699
 H          7.5210671961        1.1575652670        0.1429687220
 H          6.1543967269        0.8488245107        2.1738076825
 H          3.6724390186        0.6291653797        1.9612353275
 H          2.2243595107        2.9451622644       -0.0021162613
 H          0.6844646166        4.6502658603        0.5901606084
 H         -1.6802101135        5.2169670618        0.9949199961
 H         -3.4544866703        3.5872832468        0.5208144785
 H         -3.2366983336        0.8764551689       -1.5759952117
 C         -4.4823393273        1.2764238027        0.1191687862
 C         -5.4988574524        2.0816245499       -0.6325684231
 C         -5.6856067421        0.6041514032       -0.4685384124
 H         -6.4555238977        0.2499110242        0.2001465718
 H         -5.5253584971       -0.0325707499       -1.3264478908
 H         -6.1461802062        2.7426530080       -0.0763812502
 H         -5.2211934161        2.4508143948       -1.6082426680
 H         -4.4400721658        1.3763700566        1.1978966701
