  62
        -98.94405804
 C          2.1001313829       -0.9183051911       -0.1503561834
 C          2.4479377449        0.3877307167        0.2717667683
 C          3.7422223550        0.8930099707       -0.2115457385
 C          4.4914343757        0.1272446563       -1.0248837635
 C          5.8516294365        0.4959840869       -1.5403843399
 C          6.9562882847       -0.0034170209       -0.5984397296
 C          6.7226504812        0.3501306948        0.8703296447
 H          5.8403504525       -0.1843327462        1.2296853177
 H          7.5782991279       -0.0260209176        1.4352403938
 C          6.5503932137        1.8510746540        1.1424020073
 H          6.9359116860        2.4271351296        0.3003973303
 H          7.1457253326        2.1190751248        2.0178422489
 C          5.1116018300        2.2817192907        1.4336689510
 H          4.6902374167        1.6455297695        2.2161122833
 H          5.1342385235        3.3040982675        1.8204814824
 C          4.1554431328        2.2675346101        0.2342219867
 H          3.2339444842        2.7738575751        0.5368238134
 H          4.5959469125        2.8257466770       -0.5944279688
 H          7.9076802454        0.4172458830       -0.9290114876
 H          7.0177293385       -1.0908520529       -0.6830113800
 H          5.9851886836        0.0337500556       -2.5198669650
 H          5.9129520458        1.5771115798       -1.6488909447
 O          4.1084023737       -1.1081335371       -1.4361894025
 C          2.9124961905       -1.6600744834       -1.0115761474
 O          2.6864622536       -2.8012971834       -1.4609714597
 H         -0.8199860412        0.4332920044        1.2660396643
 C         -1.0623417740        0.1640803000        0.2506338464
 C         -0.3446662368       -0.8341444545       -0.3891883358
 C         -0.6630330850       -1.1437162348       -1.7087455633
 C         -1.6673496699       -0.4636853741       -2.3716807044
 C         -2.3726817695        0.5428012571       -1.7350093870
 C         -2.0605063943        0.8601716761       -0.4199411991
 N         -2.7651757926        1.8849906165        0.2315220705
 S         -4.4275899717        1.9362417837        0.0761722351
 O         -4.7824765203        2.5193724546       -1.1940318499
 O         -4.8971555268        2.6414994618        1.2478884627
 C         -4.9469004356        0.2298291330        0.1234322252
 C         -5.5436559031       -0.3422775038       -0.9811576148
 C         -5.9027440884       -1.6798735834       -0.9316060120
 C         -5.6569803035       -2.4187107914        0.2149721527
 C         -5.0597673525       -1.8283704711        1.3184591231
 C         -4.6988906691       -0.4918948088        1.2744011151
 H         -4.2388335496       -0.0006949562        2.1166065056
 H         -4.8713971409       -2.4049654370        2.2097669363
 H         -5.9330119467       -3.4607680501        0.2506491458
 H         -6.3692886398       -2.1409474881       -1.7871804742
 H         -5.7167887720        0.2681218118       -1.8523474401
 H         -2.4683155624        2.0480141260        1.1818714909
 H         -3.1462226412        1.0966908039       -2.2416726100
 H         -1.9016005321       -0.7145467382       -3.3950510762
 H         -0.1003392921       -1.9183305332       -2.2112582705
 C          0.7928365395       -1.5662482210        0.2801215470
 H          0.8197434206       -2.5872424397       -0.1228337143
 C          0.6716522784       -1.6426634360        1.7877796816
 C         -0.3524463781       -2.5527242228        2.3943628348
 C          1.1039851352       -2.8920556852        2.4919045247
 H          1.5935955731       -2.7996474657        3.4499596250
 H          1.4836115661       -3.7017007662        1.8857208929
 H         -0.9627146302       -3.1329522514        1.7191449360
 H         -0.8643261464       -2.2312597562        3.2884620596
 H          0.8758569750       -0.7027080254        2.2848249905
 O          1.7296915872        1.1017318872        1.0197269482
