  62
        -98.93704892
 C          1.8452188496        1.3674491171        0.3681318406
 C          2.6122374531        0.8630832448       -0.7093352714
 C          3.8299996457        0.1258258995       -0.3391654035
 C          4.1380968899       -0.0483768795        0.9583688411
 C          5.3665723610       -0.7210014564        1.5120746076
 C          5.5108273388       -2.2277667252        1.2238087208
 C          6.3423792986       -2.5565745105       -0.0222484708
 H          7.0164977824       -1.7233846321       -0.2245600781
 H          6.9709910857       -3.4227938287        0.1940086376
 C          5.5453665698       -2.8881465971       -1.2875535335
 H          6.2333496406       -2.8525722944       -2.1350093131
 H          5.1677800034       -3.9106640201       -1.2140236842
 C          4.3512410440       -1.9797482729       -1.5816165051
 H          3.5250821035       -2.2286455789       -0.9108173743
 H          3.9992819992       -2.1951493142       -2.5924965946
 C          4.6426598739       -0.4722938133       -1.4502420052
 H          5.7050450902       -0.2987140091       -1.2854872440
 H          4.3456887461        0.0438224720       -2.3653931833
 H          6.0073361564       -2.6684990953        2.0898648500
 H          4.5225608874       -2.6818091984        1.1534053499
 H          6.2495600431       -0.1959538161        1.1406717045
 H          5.3183739685       -0.5687841351        2.5923551060
 O          3.3507269817        0.4228001508        1.9647944967
 C          2.1870386845        1.1239070720        1.6978813701
 O          1.5495017057        1.4687231875        2.7149053211
 O          2.3087539357        1.0264338335       -1.9188742923
 C          0.5764405201        2.1593327111        0.1008356876
 C         -0.4341691921        1.2714606144       -0.5845987608
 C         -1.0411025061        1.5782624267       -1.7941425740
 C         -1.9482416143        0.7005807428       -2.3647202102
 C         -2.2791106046       -0.4865253237       -1.7391447015
 C         -1.6937545855       -0.7920448610       -0.5159357645
 C         -0.7830371307        0.0850361184        0.0509318884
 H         -0.3232156313       -0.1545206866        1.0022836020
 N         -2.0469307531       -1.9824160028        0.1431073792
 S         -3.6760200602       -2.3607517091        0.2320659030
 O         -3.8191269751       -3.1431992801        1.4399203522
 O         -4.0887542782       -3.0090236855       -0.9878054753
 C         -4.5130971828       -0.7931024673        0.3942177087
 C         -4.2100934153       -0.0035782398        1.4858971151
 C         -4.8217087003        1.2332507764        1.6087778588
 C         -5.7211956015        1.6576809625        0.6425106416
 C         -6.0194709219        0.8507498949       -0.4441926094
 C         -5.4092763539       -0.3866890417       -0.5731774871
 H         -5.6093364419       -1.0442410532       -1.4033328858
 H         -6.7205643246        1.1825162127       -1.1928189920
 H         -6.1917660548        2.6232782521        0.7394293274
 H         -4.5904062274        1.8612574786        2.4542718891
 H         -3.5088448794       -0.3625441726        2.2226156045
 H         -1.5938551257       -2.1053559415        1.0364766200
 H         -2.9719314239       -1.1860834557       -2.1779363831
 H         -2.4020567892        0.9444572820       -3.3129085280
 H         -0.7955967466        2.4978310375       -2.2982550107
 H          0.1741793717        2.4239212884        1.0894399014
 C          0.8895521766        3.4331206585       -0.6540517307
 C         -0.0272578336        4.6128887327       -0.5426539484
 C          1.3177251098        4.6439686280        0.1172398600
 H          2.0861375601        5.2763669618       -0.3014431759
 H          1.3643945115        4.5574294335        1.1933261794
 H         -0.1828199585        5.2297351131       -1.4146247742
 H         -0.8976475259        4.5109907369        0.0874779101
 H          1.3780323441        3.2486516547       -1.6032855006
