  62
        -98.93571350
 C         -1.3301411263       -1.8143774459       -0.0863435251
 C         -2.2616506000       -1.2796257625        0.8384754470
 C         -3.2930977943       -0.3620447926        0.3176521905
 C         -3.2952711993       -0.0769939083       -0.9974713558
 C         -4.2216586006        0.8331810983       -1.7608300583
 C         -3.9279847344        2.3226568517       -1.5275544223
 C         -3.7034060628        2.7076982698       -0.0680726363
 H         -2.8687145471        2.1282738817        0.3289995254
 H         -3.4171588110        3.7625332672       -0.0432342389
 C         -4.9163436180        2.5315068171        0.8422794426
 H         -4.6581189428        2.9611272585        1.8133748930
 H         -5.7557115099        3.1032219031        0.4405958429
 C         -5.3711630324        1.0879755158        1.0721894282
 H         -5.9573175984        0.7186865904        0.2346913144
 H         -6.0387576018        1.0906564210        1.9386345509
 C         -4.2431299446        0.1118573301        1.3911005754
 H         -4.6800900902       -0.8005949739        1.8140776513
 H         -3.6201930890        0.5267078345        2.1914205664
 H         -4.7552543988        2.9040771632       -1.9385021287
 H         -3.0264034582        2.5805168255       -2.0891347125
 H         -4.0734345489        0.6109683955       -2.8201167116
 H         -5.2548338606        0.6026927618       -1.5176964297
 O         -2.3696496786       -0.6011849455       -1.8496350777
 C         -1.3766859064       -1.4735046637       -1.4375234474
 O         -0.6288519801       -1.8490177638       -2.3612764211
 O         -2.2431564359       -1.5655260706        2.0655844549
 C         -0.3008624639       -2.7854753284        0.4672375923
 C          0.9994602752       -2.0839122432        0.7625572083
 C          1.5557582063       -2.1081176220        2.0355154442
 C          2.7427770187       -1.4454880073        2.2991397947
 C          3.3984628612       -0.7487086225        1.3002857691
 C          2.8457832501       -0.7130313072        0.0261156533
 C          1.6545971087       -1.3733691694       -0.2350401862
 H          1.2274653784       -1.3420502971       -1.2267151919
 N          3.4984857035        0.0003114493       -1.0002085017
 S          3.8220778362        1.6158546131       -0.7007797796
 O          4.0136646649        2.2197929362       -1.9992073348
 O          4.9300380381        1.7143622211        0.2154201358
 C          2.3388751360        2.2393198464        0.0671719823
 C          2.2805085319        2.3829859431        1.4384569768
 C          1.0943989233        2.8063570208        2.0166201207
 C         -0.0055387642        3.0777293154        1.2181859307
 C          0.0707557761        2.9320106222       -0.1585305692
 C          1.2510761771        2.5021565225       -0.7413961427
 H          1.3475292506        2.3797660475       -1.8087562525
 H         -0.7857632563        3.1458598042       -0.7775766795
 H         -0.9284808093        3.4069740192        1.6693063157
 H          1.0305754950        2.9207340908        3.0866929022
 H          3.1600454388        2.1703110105        2.0232280442
 H          3.0416302419       -0.0991210533       -1.8960507912
 H          4.3242209197       -0.2283196004        1.4850443240
 H          3.1633914822       -1.4737273544        3.2926249684
 H          1.0445301675       -2.6402508756        2.8241597058
 H         -0.7243849878       -3.1127367266        1.4295582132
 C         -0.1334868203       -4.0275584018       -0.3991254270
 C          1.1298019666       -4.3857654295       -1.1178604671
 C          0.7106661695       -5.1683619736        0.0879516259
 H          0.3489833780       -6.1767391985       -0.0441152102
 H          1.2705370877       -5.0143341233        0.9982750183
 H          1.0362112566       -4.8395294655       -2.0929575312
 H          1.9806610519       -3.7291966501       -1.0271742495
 H         -1.0567951021       -4.2918160749       -0.9052980377
