  62
        -98.94032217
 C         -1.5012640019       -1.6769319135       -0.1982691951
 C         -1.4169930507       -0.3075600771       -0.5407144997
 C         -2.6905846242        0.4353444939       -0.5887141660
 C         -3.8409000421       -0.2019237657       -0.3025295345
 C         -5.2749878521        0.2854619203       -0.3037620585
 C         -5.5911810043        1.7787137199       -0.3344546650
 C         -5.1841421021        2.5473043649        0.9225412392
 H         -5.3664712758        3.6096087326        0.7459227290
 H         -5.8303057917        2.2322546851        1.7458688822
 C         -3.7378806708        2.3593004236        1.3749563686
 H         -3.5913629209        2.9574829894        2.2784055378
 H         -3.5729532119        1.3159060303        1.6515814313
 C         -2.6742172763        2.7781950077        0.3618877975
 H         -1.7044094268        2.7314834242        0.8641625484
 H         -2.8480484466        3.8113852063        0.0557145698
 C         -2.5786634202        1.9001900915       -0.8972419436
 H         -3.3112398989        2.1944244480       -1.6447295669
 H         -1.5847078636        2.0416136362       -1.3307698592
 H         -5.1580340179        2.2367667460       -1.2186221311
 H         -6.6768096774        1.8634843967       -0.4346986319
 H         -5.7490331429       -0.1861301906       -1.1718139308
 H         -5.7412914820       -0.1610782137        0.5802397038
 O         -3.8691145702       -1.5300895193        0.0187119010
 C         -2.7169447979       -2.2915764049        0.0926849205
 O         -2.9042648546       -3.4795720126        0.4261118905
 H          2.2712652160       -1.3578270554       -0.3995334896
 C          1.9011567032       -1.3412490373        0.6109412862
 C          0.6727394474       -1.8970388161        0.9271772389
 C          0.2404389073       -1.8574517740        2.2512430434
 C          1.0183593772       -1.2738971526        3.2315786401
 C          2.2388128313       -0.7049002387        2.9098007618
 C          2.6783435160       -0.7398693281        1.5923838310
 N          3.9179521221       -0.1867857935        1.2417979070
 S          4.1460555918        0.5776720441       -0.2232144131
 O          4.2126430611       -0.3905237215       -1.2893190752
 O          5.3495129401        1.3598551077       -0.0201027123
 C          2.7760659721        1.6920758790       -0.4719063608
 C          2.2354126726        1.8117242855       -1.7340311129
 C          1.2313066639        2.7405142964       -1.9496660468
 C          0.7833619330        3.5273248715       -0.9017463402
 C          1.3310052728        3.3895520309        0.3636233656
 C          2.3410353974        2.4682312154        0.5829669205
 H          2.7863811782        2.3489125423        1.5575881009
 H          0.9727638140        3.9971864008        1.1797200050
 H         -0.0026848115        4.2471983051       -1.0694290178
 H          0.7965628040        2.8397669096       -2.9318302905
 H          2.6030270742        1.1711754851       -2.5198428827
 H          4.4041084012        0.2875320106        1.9882095610
 H          2.8472048326       -0.2425045786        3.6722051577
 H          0.6710442679       -1.2537448948        4.2536019480
 H         -0.7202193407       -2.2905593109        2.4967266378
 C         -0.2373927841       -2.5140016161       -0.1059293290
 H         -0.5511150460       -3.5032028537        0.2565997868
 C          0.4025153464       -2.6738735684       -1.4680549821
 C          1.3487820043       -3.8083721296       -1.7168033700
 C         -0.0125378669       -3.8156743602       -2.3438450374
 H         -0.0924299779       -3.6473708771       -3.4073687985
 H         -0.7529054513       -4.4989566177       -1.9533724698
 H          2.2087319558       -3.6330146984       -2.3456579465
 H          1.5344890954       -4.4904130547       -0.9006733226
 H          0.6083092700       -1.7262164502       -1.9522977756
 O         -0.3337882053        0.2748762628       -0.8022090313
