  62
        -98.94825567
 C         -1.1728223315       -1.2054164858       -0.0163903095
 C         -1.9324394476       -0.6680839433        1.0493688796
 C         -2.5748660639        0.6277249665        0.7920723440
 C         -2.3989371792        1.2236063878       -0.4014302119
 C         -3.0333851506        2.5197962313       -0.8137673961
 C         -4.3818683863        2.2825932932       -1.5080064815
 C         -5.3133996497        1.3436010493       -0.7417721981
 H         -6.2443805070        1.2746693904       -1.3084274660
 H         -4.8743789197        0.3435607259       -0.7209710001
 C         -5.6219294536        1.7890484706        0.6944830517
 H         -5.3835904183        2.8465028397        0.8147664547
 H         -6.6929981531        1.6756498749        0.8745811775
 C         -4.9018985604        0.9829611421        1.7773449992
 H         -5.0621131825       -0.0848652681        1.6076411427
 H         -5.3511399129        1.2313398989        2.7426853619
 C         -3.3924713472        1.2287150301        1.9000527915
 H         -3.1975102678        2.3002058560        1.9857657607
 H         -3.0488033772        0.7473410647        2.8208447743
 H         -4.8713248678        3.2478298930       -1.6493348414
 H         -4.1932291750        1.8486463505       -2.4924436658
 H         -3.1696521041        3.1458783474        0.0660552270
 H         -2.3617352989        3.0296586739       -1.5065298672
 O         -1.6494021132        0.6841516079       -1.3958115139
 C         -1.0080902868       -0.5372246337       -1.2287859925
 O         -0.3402226459       -0.9039403523       -2.2122485672
 H          1.0338645559       -0.7284280244        1.4144417270
 C          1.6308867486       -1.3626634054        0.7747365565
 C          1.0179931559       -2.3705980974        0.0386840001
 C          1.8094703355       -3.1849408588       -0.7606422651
 C          3.1769648423       -2.9826135576       -0.8289914590
 C          3.7805832085       -1.9714477180       -0.1055184860
 C          2.9994562946       -1.1571620052        0.7077481393
 N          3.5932740667       -0.1441898539        1.4819023265
 S          2.9253198748        1.3855233376        1.5310909541
 O          3.9661203287        2.2074870348        2.1103595168
 O          1.6675305738        1.3650990430        2.2331245169
 C          2.6842882572        1.8363870604       -0.1750028684
 C          1.4172724339        1.7935231606       -0.7160689993
 C          1.2494497026        2.0916707099       -2.0587148272
 C          2.3501322952        2.4244452416       -2.8321640444
 C          3.6182647704        2.4712373430       -2.2721337144
 C          3.7909830097        2.1710649313       -0.9313116400
 H          4.7575137724        2.2076107993       -0.4553954374
 H          4.4699136272        2.7362704979       -2.8777431123
 H          2.2152795246        2.6495272905       -3.8783231871
 H          0.2635714747        2.0384491144       -2.4924301760
 H          0.5867023401        1.5276646310       -0.0803125142
 H          4.5967963612       -0.0856766913        1.3822185119
 H          4.8470116512       -1.8145382434       -0.1598468615
 H          3.7798237068       -3.6193976452       -1.4581690518
 H          1.3561697083       -3.9771178175       -1.3329035361
 C         -0.4755972635       -2.5393404578        0.1741304018
 H         -0.6880230959       -2.8328636563        1.2134808879
 C         -1.0616902050       -3.5813454336       -0.7555101035
 C         -1.0437351201       -5.0303757175       -0.3733930633
 C         -2.3335238755       -4.2679241140       -0.3603876984
 H         -3.0666294325       -4.4767305453       -1.1250943411
 H         -2.7636313181       -4.0030003631        0.5947933431
 H         -0.8940405137       -5.7668247982       -1.1483572314
 H         -0.6009169998       -5.2913810977        0.5759090983
 H         -0.9379941491       -3.3235535855       -1.8012275536
 O         -2.0668774296       -1.2453327514        2.1629620157
