  62
        -98.94894562
 C          0.7430016608        1.8269432003        0.2015477394
 C         -0.1798368290        2.5678036608       -0.5715483305
 C         -1.5835523989        2.4875557119       -0.1483729099
 C         -1.9080673490        1.7325677525        0.9170001605
 C         -3.2979571889        1.5770095837        1.4624433511
 C         -4.0189131700        0.3639364240        0.8619633718
 C         -3.9296691907        0.2759415135       -0.6616012582
 H         -2.8947574110        0.0825359226       -0.9576673986
 H         -4.5109778815       -0.5964868462       -0.9713884777
 C         -4.4515781701        1.5162821737       -1.4006086984
 H         -5.0592344907        1.1859017238       -2.2459003281
 H         -5.0995643094        2.0953992343       -0.7409890283
 C         -3.3617420296        2.4268988127       -1.9693395591
 H         -2.6432447503        1.8236839820       -2.5314996692
 H         -3.8309420994        3.1193065828       -2.6739271792
 C         -2.5906625186        3.2682302024       -0.9439816097
 H         -3.2941369080        3.7831498431       -0.2861181596
 H         -2.0191264183        4.0221391018       -1.4935759502
 H         -3.5746507305       -0.5402312362        1.2804209919
 H         -5.0679727499        0.4038792649        1.1622194522
 H         -3.2250222885        1.4436170340        2.5432503911
 H         -3.8607627483        2.4857344940        1.2562918111
 O         -0.9977353892        1.0119564920        1.6203896103
 C          0.3459620407        1.0280890509        1.2742364198
 O          1.0695459504        0.3100539506        1.9883556697
 O          0.1577010011        3.2750691802       -1.5611405208
 C          2.2108193707        1.8523561391       -0.1782942612
 C          2.7195359095        0.4603524987       -0.4624283610
 C          4.0316539893        0.0726997278       -0.2156855114
 C          4.4438440683       -1.2196079126       -0.4912786012
 C          3.5581333874       -2.1569774821       -0.9915159206
 C          2.2433203676       -1.7773255112       -1.2420050001
 C          1.8465441986       -0.4717275909       -1.0051185704
 H          0.8283075487       -0.1882391802       -1.2227168600
 N          1.3064082967       -2.7025531507       -1.7292191095
 S         -0.3107937131       -2.6354097594       -1.3455090488
 O         -0.8424574242       -3.8796085091       -1.8635968182
 O         -0.9133158225       -1.4380704291       -1.8798716390
 C         -0.5047721324       -2.6565360687        0.4316698513
 C          0.5527104679       -2.7233628992        1.3134071608
 C          0.2855962784       -2.7675845686        2.6736674310
 C         -1.0218228614       -2.7561983575        3.1276786215
 C         -2.0755986517       -2.7019925470        2.2284255119
 C         -1.8151574622       -2.6498682176        0.8698022918
 H         -2.6010106625       -2.6019388172        0.1318556921
 H         -3.0948638416       -2.6992285361        2.5821488323
 H         -1.2220995010       -2.7860201570        4.1871725216
 H          1.1068237287       -2.7984220990        3.3709223306
 H          1.5698306578       -2.7156978400        0.9586312004
 H          1.6295394160       -3.6565280909       -1.7930948593
 H          3.8735657566       -3.1713492124       -1.1826492104
 H          5.4660642781       -1.5067791233       -0.2979574115
 H          4.7301608700        0.7823628574        0.1965059481
 H          2.2634158807        2.4359137488       -1.1104906414
 C          3.0186647616        2.5656802489        0.8885810482
 C          4.2059243721        3.4022022079        0.5178165475
 C          2.9398255028        4.0595294690        0.9753791978
 H          2.9168323735        4.5199769693        1.9515543277
 H          2.3294025428        4.5642351892        0.2405911179
 H          5.0559257424        3.4146428375        1.1834170771
 H          4.4611637617        3.4756121074       -0.5286655027
 H          3.0516910116        2.0114067391        1.8198298984
