  62
        -98.93839292
 C         -1.9074172542       -1.0426653192       -0.2300623748
 C         -2.4157639172        0.1172057899       -0.8581749985
 C         -3.8769084346        0.3064889088       -0.7894961677
 C         -4.6290600360       -0.6187628265       -0.1686093309
 C         -6.1150947455       -0.5875215689        0.0590374102
 C         -6.4397775502        0.0205468137        1.4340806725
 C         -6.5685960094        1.5432707885        1.4514103795
 H         -7.4904076196        1.8307985466        0.9413848421
 H         -6.6633126606        1.8493652712        2.4958021698
 C         -5.4024144575        2.3079352050        0.8193321744
 H         -4.4558124220        1.8607010568        1.1283274607
 H         -5.4198550482        3.3272676452        1.2100632822
 C         -5.4774922090        2.3636171683       -0.7138022220
 H         -5.3675920833        3.3988588681       -1.0433964249
 H         -6.4684592999        2.0414410158       -1.0334396990
 C         -4.4061413609        1.5480748961       -1.4536687987
 H         -4.7838494995        1.2799391675       -2.4461397320
 H         -3.5209198393        2.1715337750       -1.6156383281
 H         -7.3812222332       -0.4020573417        1.7907777213
 H         -5.6572339312       -0.2910329147        2.1306487918
 H         -6.6164742788       -0.0478239393       -0.7387237330
 H         -6.4536642325       -1.6256478131        0.0494204559
 O         -4.0971870244       -1.7311822682        0.4093138749
 C         -2.7356730141       -1.9686034714        0.4028479219
 O         -2.3891331988       -3.0158405285        0.9857454063
 H          1.7535258068        0.1018897249       -1.2363772339
 C          1.4105883109        0.4496146928       -0.2769226704
 C          0.3315493614       -0.1491340045        0.3528956427
 C         -0.0784537367        0.3479768284        1.5882209533
 C          0.5575609363        1.4306510680        2.1619173154
 C          1.6292006231        2.0322460862        1.5246856647
 C          2.0545016226        1.5381651624        0.2985465890
 N          3.1335321955        2.1344564084       -0.3746345606
 S          4.3305003369        1.1794761686       -1.0452562785
 O          5.4422936808        2.0817865289       -1.2487111706
 O          3.8382886839        0.5014381573       -2.2162577471
 C          4.7236671957        0.0063988069        0.2388670811
 C          5.5061177798        0.4340896996        1.2940485245
 C          5.7648416564       -0.4417027778        2.3354014013
 C          5.2313501506       -1.7215552884        2.3086352355
 C          4.4494034518       -2.1357492594        1.2417261031
 C          4.1905484186       -1.2653256486        0.1944806285
 H          3.5913916881       -1.5521026697       -0.6537756517
 H          4.0372895715       -3.1321684397        1.2215096442
 H          5.4280861280       -2.4020506241        3.1220463628
 H          6.3773356967       -0.1250186409        3.1641475082
 H          5.9102885559        1.4331990628        1.2720400211
 H          3.5353428626        2.9269256007        0.1047548090
 H          2.1229181248        2.8841573780        1.9669316762
 H          0.2193502462        1.8102127398        3.1143424958
 H         -0.9165826501       -0.1218341157        2.0854751786
 C         -0.4145561259       -1.3192286456       -0.2401269504
 H         -0.2647214770       -2.1905392997        0.4143462763
 C          0.0357906346       -1.6807549312       -1.6399637341
 C          1.1724038241       -2.6347383714       -1.8451886851
 C         -0.2301878039       -3.0620312329       -2.1553659155
 H         -0.5208676270       -3.1795625748       -3.1885079511
 H         -0.7137917160       -3.7562837055       -1.4833091773
 H          1.6348577626       -3.0536646404       -0.9639670653
 H          1.8538150647       -2.4573457646       -2.6644409616
 H         -0.0766664896       -0.8611755870       -2.3410425901
 O         -1.6880978517        0.9626057657       -1.4424970902
