  62
        -98.93360483
 C         -2.5135545572       -1.3920427933        0.3270317294
 C         -2.7972676389       -0.5100849775       -0.7411455705
 C         -3.8719101221        0.4837702602       -0.5206637338
 C         -4.5086693016        0.5083050821        0.6640406015
 C         -5.5952538724        1.4425648038        1.1263162458
 C         -5.0638554578        2.8371710959        1.4937111485
 C         -4.0579909723        3.4214794406        0.5056035690
 H         -3.6815744705        4.3565878297        0.9286036922
 H         -3.2081751116        2.7422165074        0.4154992968
 C         -4.6140176333        3.7277758330       -0.8830852713
 H         -5.4435476962        4.4321813010       -0.7897279998
 H         -3.8203273111        4.2234219245       -1.4482062360
 C         -5.0899288216        2.5208829842       -1.6948199067
 H         -6.0659004401        2.1807589111       -1.3594277461
 H         -5.2169269585        2.8544895094       -2.7289892000
 C         -4.1097507327        1.3526342374       -1.7329616191
 H         -4.4175084364        0.6654213224       -2.5306091879
 H         -3.1245745322        1.7227172671       -2.0399546197
 H         -4.5712273368        2.7652313447        2.4663634511
 H         -5.9137470170        3.5141352722        1.5950022238
 H         -6.3747761870        1.5108282822        0.3733667072
 H         -6.0341830205        0.9918594656        2.0191613399
 O         -4.1920929601       -0.3537662482        1.6721527131
 C         -3.2109497459       -1.3120618395        1.5359476068
 O         -3.0537370030       -2.0329447220        2.5415397152
 H         -0.1944024922       -0.3694233609       -0.8353095537
 C          0.4149095350       -0.8581230203       -0.0890272369
 C         -0.0879782612       -1.9691691620        0.5740715385
 C          0.7144590128       -2.5991028340        1.5177203786
 C          1.9877380575       -2.1271896485        1.7862261111
 C          2.4847703565       -1.0200453991        1.1222860488
 C          1.6905507901       -0.3828213792        0.1778108240
 N          2.1839249643        0.7482360275       -0.4990774352
 S          3.6597654314        0.5864137525       -1.2875166065
 O          3.6458172216        1.5825199772       -2.3361548149
 O          3.8892678435       -0.7789719282       -1.7006109873
 C          4.8535401559        1.0600680929       -0.0544714898
 C          4.7153899080        2.2974468229        0.5434340321
 C          5.6413827833        2.6856731323        1.4984094000
 C          6.6851076403        1.8363407510        1.8350484696
 C          6.8115955083        0.5985981223        1.2232566095
 C          5.8880916759        0.2036967595        0.2676977357
 H          5.9419520419       -0.7512277694       -0.2303006961
 H          7.6236325543       -0.0599957919        1.4864661330
 H          7.4040726443        2.1411936849        2.5790114262
 H          5.5463700408        3.6472230839        1.9766961568
 H          3.8918228958        2.9274885027        0.2511808126
 H          1.5027763655        1.1650118788       -1.1184264388
 H          3.4758518248       -0.6489241171        1.3263847821
 H          2.6001432191       -2.6261328109        2.5215909960
 H          0.3300634859       -3.4586547780        2.0472710630
 C         -1.4651097081       -2.4907656711        0.2536823732
 H         -1.7429141981       -3.1988853684        1.0501150410
 C         -1.5116055421       -3.2562824705       -1.0639063310
 C         -0.4283033212       -3.2163485699       -2.0958434562
 C         -0.6258839545       -4.4494089741       -1.2694543357
 H         -1.0404068091       -5.3293951474       -1.7373390670
 H          0.1096784456       -4.6575503318       -0.5069941661
 H         -0.7275212971       -3.2290951150       -3.1330914542
 H          0.4457243525       -2.6112492657       -1.9090932270
 H         -2.5252217077       -3.3365697842       -1.4442142314
 O         -2.1914045961       -0.5197039719       -1.8459303661
