  62
        -98.93716248
 C         -2.4396197998       -0.9592869228       -0.1415551751
 C         -3.5896795224       -0.8593290868        0.6727644107
 C         -4.6751616285        0.0172777944        0.1916684442
 C         -4.5122107667        0.6642046828       -0.9777345525
 C         -5.4530921018        1.6321489902       -1.6446680412
 C         -5.4443598423        3.0195253009       -0.9825592108
 C         -5.4694195507        3.0040619578        0.5435801838
 H         -4.6109151348        2.4383005955        0.9101305698
 H         -5.3487971314        4.0345966882        0.8879295175
 C         -6.7476712060        2.4500947011        1.1684093080
 H         -6.6629686199        2.5810719722        2.2502935577
 H         -7.5991797555        3.0438188815        0.8284827311
 C         -7.0428990792        0.9745329230        0.8914013823
 H         -7.4435248257        0.8352733534       -0.1090585938
 H         -7.8291928087        0.6643119989        1.5858987670
 C         -5.8639909931        0.0343759444        1.1224156044
 H         -6.2388050606       -0.9963371103        1.1384682020
 H         -5.4589271953        0.2071520898        2.1261270805
 H         -6.2985770644        3.5858009420       -1.3574855372
 H         -4.5333119825        3.5359890973       -1.2944348520
 H         -5.1127025904        1.7381780576       -2.6770395085
 H         -6.4574971605        1.2199657437       -1.6682774056
 O         -3.3801721237        0.5397181217       -1.7285990767
 C         -2.3234497659       -0.2637694757       -1.3440005677
 O         -1.3663115703       -0.2767631151       -2.1411501152
 O         -3.7099249982       -1.4725262507        1.7685016339
 C         -1.2971193017       -1.8530883925        0.3053688885
 C         -0.0418885285       -1.0335126979        0.4720559009
 C         -0.0617433586        0.0435084297        1.3553343708
 C          1.0601221253        0.8267731666        1.5417916768
 C          2.2290465631        0.5564459100        0.8507456868
 C          2.2634633697       -0.5185696160       -0.0251471539
 C          1.1344327635       -1.3095603629       -0.2049846124
 H          1.1791584300       -2.1397819080       -0.8924296812
 N          3.4414316831       -0.7928302194       -0.7377548671
 S          4.9016593209       -0.8322336961        0.0838007104
 O          5.7635980432       -1.6706155611       -0.7206306529
 O          4.7236618889       -1.2307594783        1.4608085927
 C          5.4898278974        0.8464003326        0.0044284189
 C          5.5835161525        1.4469953187       -1.2356919459
 C          6.0529670321        2.7482866429       -1.3148048364
 C          6.4215463598        3.4222286235       -0.1598776834
 C          6.3246885760        2.8041908236        1.0773372839
 C          5.8549109055        1.5027830598        1.1633995359
 H          5.7573080950        0.9842757042        2.1039597112
 H          6.6119435738        3.3297034480        1.9739213964
 H          6.7865913200        4.4350896232       -0.2249066808
 H          6.1291351082        3.2324078797       -2.2751414114
 H          5.2892425293        0.8897615774       -2.1094257185
 H          3.3622372915       -1.5638577012       -1.3843762172
 H          3.1070460154        1.1663656212        0.9872392337
 H          1.0263353716        1.6589026182        2.2286991441
 H         -0.9755012944        0.2570573500        1.8933310161
 H         -1.5915229509       -2.2286758094        1.2964319128
 C         -1.1482066846       -3.0303234020       -0.6346194276
 C         -0.5111161640       -4.2991898048       -0.1542079219
 C         -1.9873794697       -4.2502373955       -0.4070559769
 H         -2.3820095588       -4.7720703524       -1.2659448005
 H         -2.6536088281       -4.2426611243        0.4430812453
 H          0.1074288652       -4.8597139686       -0.8392219213
 H         -0.1716234657       -4.3304667509        0.8702268107
 H         -0.9788602315       -2.7274515538       -1.6620595297
