  62
        -98.94861696
 C          1.5431544344        1.3551778236        0.1678239002
 C          0.9486441010        2.3164720933       -0.6817173520
 C         -0.3642066343        2.8169548575       -0.2587956437
 C         -0.9281743192        2.3449012469        0.8680270604
 C         -2.2521923277        2.7715883265        1.4414539643
 C         -3.4618033621        2.0623708856        0.8191862567
 C         -3.8237480880        2.5088375054       -0.5974462466
 H         -4.8141331423        2.1053245383       -0.8172859489
 H         -3.9004382440        3.5963923703       -0.6304638236
 C         -2.8499184468        2.0288283468       -1.6823394821
 H         -3.4139327695        1.6463263802       -2.5368778594
 H         -2.2552712461        1.1905345445       -1.3095098523
 C         -1.9081223758        3.1082653782       -2.2169743860
 H         -1.2300238487        2.6375572784       -2.9339633922
 H         -2.4861039627        3.8683309078       -2.7487500139
 C         -1.0603767986        3.8050173315       -1.1451485492
 H         -0.2918810250        4.3958748188       -1.6505596047
 H         -1.6829438515        4.4753016625       -0.5522577192
 H         -3.2733460371        0.9866446638        0.8198661956
 H         -4.3200458844        2.2543238942        1.4670711337
 H         -2.3659860747        3.8509329919        1.3345728907
 H         -2.2208794616        2.5277072406        2.5052926707
 O         -0.3233802530        1.4194614898        1.6588318963
 C          0.9186600741        0.8980398569        1.3280169914
 O          1.3529585876        0.0551414354        2.1349769860
 O          1.4929949417        2.7415683729       -1.7374832645
 C          2.8751136513        0.7396010155       -0.2178165938
 C          2.7449315489       -0.7628625346       -0.2908585826
 C          3.7384556219       -1.6355419178        0.1356221456
 C          3.5393149735       -3.0041768819        0.0752347630
 C          2.3477564746       -3.5300511392       -0.3891774485
 C          1.3504481005       -2.6645405722       -0.8287134496
 C          1.5695346732       -1.2965491708       -0.8032315243
 H          0.7944968151       -0.6343950918       -1.1584738552
 N          0.1306001929       -3.1709378756       -1.3002420575
 S         -1.3212376011       -2.3664653954       -1.2978872287
 O         -2.2509524105       -3.3246933794       -1.8577497873
 O         -1.2112332755       -1.1156196474       -2.0078209382
 C         -1.8223331450       -2.0371442356        0.3874589422
 C         -0.9396446170       -2.0236378931        1.4470983170
 C         -1.4206185378       -1.7277450695        2.7144571297
 C         -2.7655042801       -1.4583211847        2.9042308780
 C         -3.6434702479       -1.4839718540        1.8306932297
 C         -3.1682659758       -1.7725464158        0.5621538665
 H         -3.8128854045       -1.7992901857       -0.3020948152
 H         -4.6908361287       -1.2726864712        1.9761418195
 H         -3.1303757445       -1.2233204343        3.8916538906
 H         -0.7252552067       -1.6920673699        3.5374918349
 H          0.1118087462       -2.2089979793        1.2986924112
 H          0.0035203089       -4.1666629224       -1.2029192056
 H          2.1839603213       -4.5964805722       -0.4103383117
 H          4.3173481311       -3.6721190491        0.4120898971
 H          4.6643652061       -1.2445754894        0.5243383106
 H          3.0980881936        1.1211198903       -1.2259055049
 C          3.9657756928        1.1966992132        0.7298735698
 C          5.3728862355        1.3732878131        0.2446687904
 C          4.5348975600        2.5729824217        0.5660490943
 H          4.7660704643        3.1450266116        1.4520105913
 H          4.1559817793        3.1689719201       -0.2515104930
 H          6.1839248812        1.1242049759        0.9124223059
 H          5.5748041089        1.1626598679       -0.7947935418
 H          3.8121107513        0.8355071007        1.7406591961
