  62
        -98.94243887
 C         -1.1977739174       -1.1515389688        0.2818444937
 C         -1.8901123314       -0.3545284299        1.2297465699
 C         -2.6592010369        0.7759659309        0.6947169820
 C         -2.6285171410        1.0213762688       -0.6272941005
 C         -3.4331760466        2.0807251079       -1.3223753171
 C         -4.7947451824        1.5320563928       -1.7734405981
 C         -5.5549058162        0.7824642012       -0.6792524526
 H         -6.5104872080        0.4677294879       -1.1042911166
 H         -5.0057620727       -0.1257483580       -0.4202130956
 C         -5.8068425726        1.6019817065        0.5941764266
 H         -5.6798824862        2.6642949274        0.3825861764
 H         -6.8432575309        1.4559150409        0.9057700368
 C         -4.9253447684        1.2133132848        1.7825863068
 H         -5.3252808803        1.6996724660        2.6763509005
 H         -4.9846676163        0.1339679873        1.9451940784
 C         -3.4463761785        1.6045238095        1.6701893030
 H         -2.9840247858        1.4382636430        2.6475154495
 H         -3.3654615520        2.6658390971        1.4277198286
 H         -5.4009277386        2.3656110386       -2.1329098195
 H         -4.6327424261        0.8459274470       -2.6080046146
 H         -2.8820461330        2.4147654362       -2.2030508067
 H         -3.5772858716        2.9239969772       -0.6494828031
 O         -1.8872924682        0.2902081496       -1.4935221534
 C         -1.1410868733       -0.8039470961       -1.0695796276
 O         -0.4960706766       -1.3483049730       -1.9820235098
 O         -1.8658861953       -0.5801062544        2.4697816185
 C         -0.4284091903       -2.3501226683        0.8104654954
 C          1.0066640613       -2.2702667776        0.3614526653
 C          1.5346293494       -3.0591220400       -0.6517421714
 C          2.8476553480       -2.8922269341       -1.0568779685
 C          3.6634338519       -1.9517593360       -0.4533411220
 C          3.1468655625       -1.1668711805        0.5686132938
 C          1.8277006561       -1.3246740386        0.9639403303
 H          1.4216791015       -0.6998869494        1.7503550616
 N          3.9792014091       -0.2067954318        1.1923308412
 S          4.3594705560        1.1323234260        0.2628308727
 O          5.0552489282        0.6956676056       -0.9190451256
 O          5.0782482102        2.0267846988        1.1411953016
 C          2.7837578142        1.8466296572       -0.1702862695
 C          2.1038147061        1.3603674097       -1.2683374976
 C          0.8553995902        1.8825851692       -1.5662027380
 C          0.3063768402        2.8643678852       -0.7561190628
 C          0.9984111097        3.3360883133        0.3488591086
 C          2.2493516824        2.8223319079        0.6478957217
 H          2.8267437988        3.1678806885        1.4905814521
 H          0.5654182545        4.0989265075        0.9758118873
 H         -0.6688498453        3.2627137633       -0.9876650836
 H          0.3117369296        1.5047403078       -2.4176318543
 H          2.5532305518        0.5894411051       -1.8733983136
 H          3.6145971048        0.1107900898        2.0803579072
 H          4.6829812354       -1.7995211880       -0.7681293197
 H          3.2414777515       -3.5025737468       -1.8553904870
 H          0.9057825207       -3.7836675390       -1.1424446773
 H         -0.4470238450       -2.2190098798        1.9049346573
 C         -1.0726474303       -3.6992868830        0.5310472996
 C         -2.5635644263       -3.8497415279        0.5722795131
 C         -1.8293463137       -4.0127273541       -0.7230486216
 H         -1.7369568465       -5.0071551042       -1.1351368709
 H         -1.9182027326       -3.2405281729       -1.4700320479
 H         -2.9836904599       -4.7251536957        1.0441024494
 H         -3.1474558762       -2.9520808140        0.7172753599
 H         -0.4949145977       -4.5120588497        0.9611474161
