  62
        -98.94442440
 C         -2.6392358479       -1.3092743811        0.1134991454
 C         -2.5851343721       -0.2941808652       -0.8721770417
 C         -3.6164718112        0.7500592778       -0.7736555836
 C         -4.5348227074        0.6847997294        0.2071279959
 C         -5.6070671973        1.7058297784        0.4513101506
 C         -5.1315807111        2.7868248795        1.4319163804
 C         -3.7662432731        3.3800403366        1.0835557152
 H         -3.5489856673        4.1537292627        1.8231480927
 H         -3.0002931224        2.6084580030        1.1938045863
 C         -3.6762949842        3.9819593029       -0.3257089212
 H         -3.1680649085        4.9464511810       -0.2626730960
 H         -4.6782857428        4.1678973543       -0.7142976906
 C         -2.8938347886        3.1333770570       -1.3300722015
 H         -1.9207758844        2.8666539076       -0.9075382353
 H         -2.7053115604        3.7446504408       -2.2170432514
 C         -3.5870163862        1.8478532730       -1.7995360294
 H         -4.5962459260        2.0800167928       -2.1458856548
 H         -3.0153085962        1.4536125415       -2.6449186101
 H         -5.0679854681        2.3459747893        2.4293117920
 H         -5.8789018210        3.5818265519        1.4582629836
 H         -6.4740546626        1.1980085858        0.8770338723
 H         -5.8922270396        2.1594222695       -0.4958053180
 O         -4.5604016929       -0.3101568489        1.1296082419
 C         -3.6093577851       -1.3149681929        1.1190251582
 O         -3.7340700452       -2.1484857136        2.0380855112
 O         -1.7314222401       -0.2542210238       -1.7978864134
 C         -1.6145631589       -2.4331194208        0.1497243183
 C         -0.2769584112       -1.8360249936        0.5129938526
 C          0.0014627830       -1.5635253643        1.8498073317
 C          1.1894927634       -0.9585745628        2.2135208095
 C          2.1208173843       -0.6031711771        1.2525674577
 C          1.8434644942       -0.8526360664       -0.0840721656
 C          0.6583867617       -1.4814609219       -0.4455391467
 H          0.4509619869       -1.6582121693       -1.4887502427
 N          2.7760819802       -0.4874537391       -1.0688051728
 S          3.4900397647        1.0280506909       -0.9789201873
 O          2.6401890563        1.9884862462       -0.3138097968
 O          3.8804142206        1.3431250319       -2.3359291324
 C          4.9587681921        0.7367343292       -0.0127479810
 C          5.2321061467        1.5300751781        1.0841062915
 C          6.3864287068        1.2912863557        1.8138714502
 C          7.2433934504        0.2695226915        1.4349971213
 C          6.9562395219       -0.5164948502        0.3289109095
 C          5.8046345599       -0.2822648074       -0.4051607816
 H          5.5468914140       -0.8684553968       -1.2712977886
 H          7.6251073952       -1.3100896581        0.0371515628
 H          8.1402946414        0.0851891342        2.0050246019
 H          6.6111696032        1.9019723024        2.6735720748
 H          4.5338616015        2.3095626768        1.3452387341
 H          2.4636966594       -0.6808992312       -2.0096426253
 H          3.0440545424       -0.1200957029        1.5279042726
 H          1.3935688442       -0.7581123484        3.2544183288
 H         -0.7357398570       -1.8215799690        2.5978427817
 H         -1.9247667425       -3.0943128798        0.9696224203
 C         -1.6049159820       -3.2295946860       -1.1381625882
 C         -0.9333928175       -4.5687458209       -1.1652285528
 C         -2.4277138105       -4.4778699168       -1.2298489745
 H         -2.9194717977       -4.7020038477       -2.1646412026
 H         -2.9971832012       -4.7655810277       -0.3581157049
 H         -0.3972870132       -4.8600733013       -2.0554602315
 H         -0.4866707654       -4.9187909745       -0.2470245709
 H         -1.5467630766       -2.6128288150       -2.0262402085
