  62
        -98.94637056
 C         -1.1956274695       -1.2464202600        0.0507029503
 C         -1.5715198897       -0.2362758898        0.9707920599
 C         -2.4439908494        0.8185542902        0.4463902194
 C         -2.7652529591        0.8267857299       -0.8598724107
 C         -3.6527954187        1.8281489599       -1.5481596712
 C         -5.1496017088        1.5095077400       -1.4273454315
 C         -5.7565714992        1.7630320404       -0.0465935418
 H         -5.5103561792        2.7746616105        0.2775753181
 H         -6.8413400692        1.7133211805       -0.1602435021
 C         -5.3283455596        0.7565004206        1.0306488386
 H         -6.2059429798        0.4338523308        1.5954815184
 H         -4.9116533896       -0.1334641595        0.5533623189
 C         -4.3151040999        1.2969726407        2.0402510988
 H         -4.0622730902        0.4909684708        2.7338630890
 H         -4.7686166200        2.1062191009        2.6168304684
 C         -3.0116712996        1.8116817604        1.4144584790
 H         -3.1853195094        2.7685434104        0.9234513688
 H         -2.2792432599        1.9540581805        2.2124495892
 H         -5.6761937385        2.1351167399       -2.1517652618
 H         -5.3104900688        0.4668943400       -1.7109171414
 H         -3.4671377388        2.8272260099       -1.1531465613
 H         -3.3815689084        1.8131287596       -2.6058398211
 O         -2.2866430289       -0.0951984003       -1.7346403203
 C         -1.5093145191       -1.1628750103       -1.3063030999
 O         -1.1716941789       -1.9380759905       -2.2197055296
 H          1.3801001000       -0.7534534600        1.6481864009
 C          1.8221060402       -1.2828169002        0.8136226512
 C          1.0561647203       -2.2212829503        0.1313191811
 C          1.6223029606       -2.8809973906       -0.9514869585
 C          2.9225622207       -2.6023096008       -1.3386294682
 C          3.6841732006       -1.6715623307       -0.6546317082
 C          3.1246730804       -1.0078431604        0.4294883115
 N          3.8920555903       -0.0396119603        1.1204309215
 S          4.1577611307        1.3820962195        0.2773855213
 O          4.8948836110        1.0775303291       -0.9212657484
 O          4.7916027005        2.2834136396        1.2116040913
 C          2.5292356209        1.9808846395       -0.1371521593
 C          1.8701416411        1.4320683294       -1.2192520294
 C          0.5854343013        1.8628800094       -1.5071516199
 C         -0.0135794689        2.8281136197       -0.7129548903
 C          0.6573802308        3.3617139698        0.3760061698
 C          1.9397200607        2.9305746598        0.6727765703
 H          2.5000526605        3.3219608999        1.5068416904
 H          0.1836057807        4.1078150400        0.9933193095
 H         -1.0101628388        3.1647041097       -0.9478591507
 H          0.0545126815        1.4360821793       -2.3440159500
 H          2.3663453512        0.6881256192       -1.8216182391
 H          3.5043459200        0.1912290299        2.0254567614
 H          4.6913189507       -1.4324862009       -0.9547591979
 H          3.3486823309       -3.1180038810       -2.1859215580
 H          1.0373629407       -3.5969593406       -1.5046452986
 C         -0.3726046498       -2.4141259300        0.5717617808
 H         -0.3988877401       -2.3175563598        1.6660862807
 C         -0.9606357198       -3.7552112000        0.1905476809
 C         -0.5076942102       -4.9834418799        0.9199556913
 C         -1.8872088602       -4.4437993497        1.1455984007
 H         -2.7277022201       -4.9899052297        0.7442392006
 H         -2.0960076704       -3.9520008395        2.0846106806
 H          0.2219357396       -4.8553150298        1.7053161815
 H         -0.3990930201       -5.9028025601        0.3654688815
 H         -1.1842102995       -3.8447974102       -0.8649131092
 O         -1.2029441701       -0.2251362696        2.1760297000
