  62
        -98.93460440
 C         -2.7162111758       -0.1436714379        0.4966994002
 C         -2.1573105324        0.4462295081       -0.6615230752
 C         -1.6800166065        1.8352457630       -0.5312175964
 C         -1.8292182560        2.4673703802        0.6462933994
 C         -1.3661064879        3.8485232497        1.0288963471
 C          0.1100440977        4.1426409308        0.7112545315
 C          0.2885952800        5.1974949699       -0.3805841920
 H         -0.4483935164        5.9885344035       -0.2261729309
 H          1.2787819659        5.6462198507       -0.2756843156
 C          0.1717215244        4.6664090855       -1.8075837506
 H          1.0435869423        4.0472573116       -2.0315141727
 H          0.1965907530        5.5246758632       -2.4835357243
 C         -1.0846830120        3.8441955511       -2.1062783121
 H         -1.9561716741        4.2766818832       -1.6171599312
 H         -1.2643450416        3.8970846675       -3.1824207402
 C         -0.9563246636        2.3590883381       -1.7413013644
 H         -1.3290800510        1.7466592450       -2.5693946842
 H          0.0992046574        2.0836169692       -1.6291600533
 H          0.6167634870        3.2173106488        0.4320350672
 H          0.5857236463        4.5098432781        1.6222855129
 H         -2.0074738094        4.5901134194        0.5491389022
 H         -1.5411561546        3.9252662473        2.1041466966
 O         -2.4578841678        1.8872550828        1.7107106521
 C         -2.8614890560        0.5647260501        1.6857997449
 O         -3.3218139774        0.1418093906        2.7670018247
 H         -0.5741502525       -1.1288062106        1.3731480796
 C         -0.5682581704       -1.9306091105        0.6428559744
 C         -1.7704229030       -2.3624707015        0.0957968421
 C         -1.7339208939       -3.3953319708       -0.8311492051
 C         -0.5243894835       -3.9375506318       -1.2335203611
 C          0.6720828233       -3.4585819938       -0.7310753566
 C          0.6415126102       -2.4514377259        0.2213441209
 N          1.8674714794       -1.9062074624        0.7030554314
 S          2.3627879063       -0.6004460792       -0.2614491134
 O          1.6922310239        0.6135362380        0.1582548581
 O          2.2240334120       -0.9772086644       -1.6440151959
 C          4.0919275615       -0.5137743793        0.1661661057
 C          4.5456917571        0.4650400320        1.0279169946
 C          5.8877113006        0.4818053118        1.3760895282
 C          6.7459779214       -0.4785557936        0.8632641214
 C          6.2747481668       -1.4561669606       -0.0008402911
 C          4.9352971883       -1.4767205828       -0.3536540848
 H          4.5236712205       -2.2105028647       -1.0264510442
 H          6.9453880921       -2.2006168495       -0.3986969524
 H          7.7889958387       -0.4641357574        1.1374711312
 H          6.2565536734        1.2421708227        2.0455848500
 H          3.8435331863        1.1945446772        1.3989479375
 H          1.7543138027       -1.5395248668        1.6407296522
 H          1.6207140169       -3.8373362957       -1.0738168499
 H         -0.5146074518       -4.7278243950       -1.9687101112
 H         -2.6534768633       -3.7579469008       -1.2613635128
 C         -3.0292741812       -1.6304401933        0.5002370136
 H         -3.2756288942       -1.8917582647        1.5398967868
 C         -4.2197832555       -1.9422734737       -0.3803959273
 C         -5.0960539919       -3.1193155840       -0.0757342928
 C         -5.5977910787       -1.7285946664        0.1672484643
 H         -6.3563832607       -1.3292191508       -0.4887673579
 H         -5.6746636305       -1.3796773678        1.1869040531
 H         -5.5155644635       -3.6762199106       -0.8998386530
 H         -4.8427619257       -3.7224214008        0.7829608143
 H         -4.0450661881       -1.6831404074       -1.4182889521
 O         -2.0415606822       -0.1689782797       -1.7544854709
