  62
        -98.93829500
 C          0.9106822301        1.5217851691       -0.5748558402
 C          2.1840117053        1.7871332183       -0.0091332337
 C          3.2170892650        0.7602105578       -0.2045606597
 C          2.9057536458       -0.3557317993       -0.8886387808
 C          3.8138751826       -1.5357113430       -1.0924228697
 C          3.8885575615       -2.3779016949        0.1969824921
 C          5.2650135803       -2.3982231636        0.8624803080
 H          5.1417400022       -2.8360565648        1.8553109683
 H          5.9255955343       -3.0553833911        0.2929337826
 C          5.9616191459       -1.0416563026        1.0003599073
 H          6.7816960919       -1.1752431503        1.7091877436
 H          6.4166050190       -0.7635818124        0.0484784430
 C          5.0795911322        0.1180316619        1.4799899432
 H          5.6690416858        0.7328745559        2.1633084586
 H          4.2254284726       -0.2547316738        2.0454107486
 C          4.5816102061        1.0481693285        0.3583617770
 H          4.5101667836        2.0650586919        0.7554536117
 H          5.3139989722        1.0645303412       -0.4537081224
 H          3.1477102242       -1.9913851243        0.8992200836
 H          3.6101980655       -3.4089850860       -0.0245995919
 H          3.3991295398       -2.1250429370       -1.9100840671
 H          4.8044132533       -1.1900943724       -1.3806682031
 O          1.6796016007       -0.5688175995       -1.4293417902
 C          0.6539584929        0.3574111979       -1.2990088665
 O         -0.3968078412        0.0217759691       -1.8762467787
 O          2.4461586283        2.8426168372        0.6282901668
 C         -0.1819129073        2.5520250394       -0.3347768802
 C         -1.0836547272        2.0416490515        0.7630057757
 C         -0.8811099702        2.4661371328        2.0729049816
 C         -1.6610836807        1.9738956185        3.1029453660
 C         -2.6489861807        1.0400149132        2.8484706311
 C         -2.8542871525        0.6033214669        1.5433770497
 C         -2.0805950507        1.1096963915        0.5082383734
 H         -2.2483086879        0.7529714596       -0.4946102487
 N         -3.8454268934       -0.3463921330        1.2694554062
 S         -3.8043802736       -1.3503964120       -0.0571452670
 O         -4.1261654061       -0.6132368490       -1.2530128628
 O         -4.7399468311       -2.4042245983        0.2868454327
 C         -2.1743156606       -2.0677264299       -0.1696556146
 C         -1.7763649414       -2.5392143888       -1.4031013661
 C         -0.5516995194       -3.1747469149       -1.5192320179
 C          0.2558769199       -3.3211834677       -0.4040496728
 C         -0.1548731966       -2.8389249471        0.8278761406
 C         -1.3845570857       -2.2123554213        0.9524550924
 H         -1.7159247604       -1.8300684279        1.9045994813
 H          0.4797559430       -2.9461503786        1.6937066241
 H          1.2142934665       -3.8066759166       -0.4970463564
 H         -0.2267197076       -3.5378309758       -2.4810952699
 H         -2.4233875996       -2.3830124244       -2.2511658285
 H         -4.2755118880       -0.7823746565        2.0709612332
 H         -3.2576551628        0.6491581442        3.6494873535
 H         -1.4955734871        2.3150276399        4.1135129148
 H         -0.0936283326        3.1772928513        2.2763276896
 H          0.3409748662        3.4398208245        0.0462641060
 C         -0.9400318547        2.9459555533       -1.5843074647
 C         -1.7128231338        4.2299246063       -1.5838602586
 C         -0.4578409979        4.1104305366       -2.3942133860
 H         -0.5388170555        4.0581693860       -3.4696204546
 H          0.4237117332        4.6301044143       -2.0476939320
 H         -2.6600389320        4.2592510402       -2.1003912480
 H         -1.6815545867        4.8317081554       -0.6879807321
 H         -1.3591192880        2.1083207439       -2.1264512671
