  62
        -98.93929222
 C         -2.0580436000       -0.8567695902        0.0185562504
 C         -2.3101822696        0.1370568697        0.9890836505
 C         -2.2774962296        1.5350146998        0.5285081307
 C         -2.0066638598        1.7961747799       -0.7642175393
 C         -1.8203749198        3.1085594400       -1.4977492092
 C         -2.2544034095        4.4283205399       -0.8655438190
 C         -3.7649077695        4.5890284501       -0.6967976786
 H         -3.9504604492        5.5145362601       -0.1476590485
 H         -4.2151838597        4.6919174103       -1.6870992785
 C         -4.4726954995        3.4384028101        0.0138301714
 H         -5.5383396594        3.6781419202        0.0595518217
 H         -4.3719369997        2.5255689202       -0.5766769687
 C         -3.9981243492        3.1603842899        1.4387081913
 H         -4.6874858091        2.4354554499        1.8795516614
 H         -4.0519989489        4.0762001298        2.0303110014
 C         -2.5782831792        2.5801970297        1.5642077809
 H         -1.8232678391        3.3633119096        1.5461909408
 H         -2.5003037690        2.0788143896        2.5336633408
 H         -1.7452763893        4.5740285298        0.0827313909
 H         -1.9097717696        5.2212070000       -1.5349905690
 H         -0.7476486299        3.1617648098       -1.7178569695
 H         -2.3271178601        2.9872109101       -2.4606050791
 O         -1.7922665902        0.7993630800       -1.6721712295
 C         -1.7828102002       -0.5347063401       -1.3091264997
 O         -1.5421340706       -1.3217713100       -2.2452644698
 H          0.3145979102       -1.0252464706        0.9149106898
 C          0.4967580300       -1.9823127306        0.4464044796
 C         -0.5737422602       -2.8139058504        0.1417309898
 C         -0.3097546005       -4.0467125104       -0.4401099404
 C          0.9911307294       -4.4117933405       -0.7431005207
 C          2.0471226896       -3.5565625706       -0.4893692109
 C          1.7943962999       -2.3293197707        0.1142999293
 N          2.8386691200       -1.4335659508        0.4075942692
 S          2.5120159502        0.2207283692        0.2872972294
 O          1.9186644306        0.6657046192        1.5244840096
 O          1.7739350900        0.5093637094       -0.9217926104
 C          4.1738644403        0.8579611590        0.1656307491
 C          4.9188246306        0.9925332488        1.3221849390
 C          6.2227509106        1.4525028287        1.2291612287
 C          6.7573767803        1.7679421187       -0.0113047414
 C          5.9968891501        1.6304691590       -1.1627979212
 C          4.6924336300        1.1693195591       -1.0769363910
 H          4.0597982598        1.0528305993       -1.9425696808
 H          6.4132937399        1.8798870890       -2.1254017713
 H          7.7722938904        2.1259458286       -0.0812034716
 H          6.8157370008        1.5636179485        2.1224949686
 H          4.4559060607        0.7438169288        2.2628311590
 H          3.7006552599       -1.6728936909       -0.0640712311
 H          3.0566018095       -3.8312193607       -0.7550137612
 H          1.1822821592       -5.3689827504       -1.2041040909
 H         -1.1232194606       -4.7143730102       -0.6724543703
 C         -1.9636501101       -2.3096651703        0.4474053402
 H         -2.1007106298       -2.3046971904        1.5395229902
 C         -3.0630330203       -3.1386346000       -0.1816762397
 C         -3.5923034103       -4.3516650001        0.5221282503
 C         -4.4295631002       -3.1125198900        0.4325534207
 H         -5.2884826403       -3.1133311098       -0.2214735691
 H         -4.5589646599       -2.5141298900        1.3226651908
 H         -3.8811031005       -5.2063137200       -0.0707355297
 H         -3.1600746201       -4.6017174802        1.4791651102
 H         -2.9991987006       -3.1563135999       -1.2639459797
 O         -2.5377969094       -0.1311875804        2.2017748406
