  62
        -98.93470405
 C          2.5549308974        0.5025255607        0.3885257699
 C          2.8833396390       -0.8681618941        0.2244012345
 C          4.1742897778       -1.1631202992       -0.4086280119
 C          4.9508573464       -0.1427652040       -0.8153555495
 C          6.3121698940       -0.2907019762       -1.4295868201
 C          7.4113566319       -0.2594981089       -0.3584943622
 C          7.1492926208       -1.1945704440        0.8220966269
 H          8.0032019965       -1.1122028798        1.4980111846
 H          6.2717494735       -0.8411350517        1.3683547597
 C          6.9444725148       -2.6654360295        0.4334174681
 H          7.5228236456       -3.2916611484        1.1159951200
 H          7.3302267850       -2.8401921677       -0.5715655973
 C          5.4938822400       -3.1455812331        0.5096390197
 H          5.4923649089       -4.2359630067        0.4303840405
 H          5.0735363890       -2.8880710240        1.4850664035
 C          4.5540087835       -2.6074870992       -0.5767846736
 H          4.9943892028       -2.7772915522       -1.5614967787
 H          3.6185325582       -3.1713260934       -0.5168612136
 H          7.4928519579        0.7605783801        0.0239954294
 H          8.3601414328       -0.5223259073       -0.8298098928
 H          6.3550727109       -1.2270437912       -1.9826110419
 H          6.4685114527        0.5377802188       -2.1224959257
 O          4.5953920459        1.1567100912       -0.6669103806
 C          3.3965701487        1.5209534870       -0.0617171424
 O          3.2272498829        2.7516522246        0.0003117205
 H         -1.1629009755       -0.4414288833        1.0779353739
 C         -1.0616885012        0.2190567944        0.2272461568
 C          0.1177746809        0.9285860429        0.0549288121
 C          0.2408878384        1.7598817072       -1.0536374425
 C         -0.7958504266        1.8728412111       -1.9622847373
 C         -1.9693703333        1.1603478346       -1.7894701895
 C         -2.1022861924        0.3253940921       -0.6882082902
 N         -3.2827252306       -0.4191559527       -0.5170785805
 S         -4.7472962106        0.3800726723       -0.7917606551
 O         -4.9997464989        0.3970953598       -2.2105207199
 O         -4.7341254209        1.6685490260       -0.1361883586
 C         -5.8936587638       -0.7197945891        0.0141916620
 C         -6.2888065942       -0.4520233982        1.3111728881
 C         -7.1639204346       -1.3247510557        1.9385150284
 C         -7.6239055506       -2.4450657377        1.2628386653
 C         -7.2179949246       -2.7001938273       -0.0387641066
 C         -6.3440060991       -1.8313649998       -0.6724739987
 H         -6.0091085418       -1.9838394086       -1.6851535378
 H         -7.5801129152       -3.5710159352       -0.5610091004
 H         -8.3056648695       -3.1220223093        1.7529748482
 H         -7.4836670631       -1.1276620005        2.9491056737
 H         -5.9140123052        0.4361490051        1.7943409888
 H         -3.2975253558       -0.9155249799        0.3636168791
 H         -2.7842556110        1.2449387220       -2.4901919774
 H         -0.6897545692        2.5248460829       -2.8167093320
 H          1.1526024058        2.3217215906       -1.1907473574
 C          1.2294002180        0.8002850745        1.0658993709
 H          1.0193214754       -0.0980920403        1.6683354396
 C          1.2921404008        1.9795736282        2.0266225175
 C          0.6413820941        3.3014588653        1.7676401858
 C          0.0734919824        2.3818476090        2.8040382948
 H          0.1846916682        2.6399365428        3.8461875485
 H         -0.8550130202        1.8840306585        2.5666627042
 H          1.1688858234        4.1876882234        2.0853431991
 H          0.0937155890        3.4318134887        0.8475665408
 H          2.2378508440        2.0124897032        2.5583497009
 O          2.1278726209       -1.8041159080        0.6026513938
