  62
        -98.93938963
 C          2.4407992703        1.2439817888        0.0061615225
 C          3.1757884608        0.5054964964        0.9606621440
 C          3.8808606278       -0.6894276954        0.4656477460
 C          3.7774793769       -1.0149274721       -0.8347810759
 C          4.3594136772       -2.2185995519       -1.5229044179
 C          3.3338304547       -3.3642407311       -1.5688295174
 C          3.3261396274       -4.2726283192       -0.3395954067
 H          2.4719591978       -4.9465033078       -0.4402633484
 H          4.2299375702       -4.8854866759       -0.3407365357
 C          3.2263207245       -3.5520445337        1.0076678286
 H          2.4846748332       -2.7531086768        0.9411795092
 H          2.8591916663       -4.2699619930        1.7439539529
 C          4.5699423286       -2.9855973424        1.4913847576
 H          5.3709445777       -3.4099157454        0.8865158963
 H          4.7498277109       -3.3124003822        2.5175306771
 C          4.6775397610       -1.4527883560        1.4884887251
 H          4.3352743819       -1.0623906126        2.4521165499
 H          5.7307713020       -1.1696673825        1.3926333308
 H          2.3423924235       -2.9231646260       -1.7070561889
 H          3.5381427848       -3.9834069214       -2.4446868415
 H          4.5847770103       -1.9135543263       -2.5468050589
 H          5.2792024364       -2.5332558961       -1.0389368119
 O          3.0470659703       -0.2824481821       -1.7199849541
 C          2.3535243641        0.8507382164       -1.3293365131
 O          1.7176690008        1.4064491058       -2.2440368945
 H          0.2776379782        0.3770914232        1.2766365352
 C         -0.3586404912        1.0686634096        0.7368543124
 C          0.1946697473        2.2414142059        0.2359486046
 C         -0.6312219536        3.1198314984       -0.4514187120
 C         -1.9682896009        2.8161910703       -0.6452162751
 C         -2.5108152865        1.6431919851       -0.1543843081
 C         -1.6953226457        0.7612401465        0.5433755318
 N         -2.2394828370       -0.4310453654        1.0589060677
 S         -3.0322706151       -1.4436121222       -0.0245654235
 O         -2.9495380734       -2.7630194664        0.5644361075
 O         -2.5089827903       -1.3048226855       -1.3643186967
 C         -4.7213236831       -0.8848600985        0.0395853639
 C         -5.3723511114       -0.5246158612       -1.1238125866
 C         -6.6894423849       -0.0980375866       -1.0494543397
 C         -7.3278342353       -0.0403605658        0.1799521799
 C         -6.6601032366       -0.4079658595        1.3388785640
 C         -5.3442437903       -0.8368412736        1.2715482727
 H         -4.7900978042       -1.1338190077        2.1461819091
 H         -7.1598129686       -0.3612744685        2.2929804282
 H         -8.3518639875        0.2936041047        0.2352317610
 H         -7.2098087728        0.1879016922       -1.9494208318
 H         -4.8318634462       -0.5785503521       -2.0555263267
 H         -1.5797621403       -0.9643964493        1.6077890721
 H         -3.5492545127        1.4010568084       -0.3111586400
 H         -2.5968147088        3.5037115979       -1.1902867717
 H         -0.2261620374        4.0357824863       -0.8484835479
 C          1.6695869674        2.4718198173        0.4577660900
 H          1.8455258870        2.5451558378        1.5412716439
 C          2.2040369777        3.7207386299       -0.2087880059
 C          2.0567550903        5.0522084404        0.4632858505
 C          3.4026915854        4.3990597733        0.3814308796
 H          4.1406689305        4.8147323311       -0.2880052794
 H          3.8218093120        3.9715019349        1.2806524201
 H          1.8724442208        5.9215054807       -0.1494639796
 H          1.5625413845        5.0748581817        1.4226195050
 H          2.1351687754        3.6785445873       -1.2898529259
 O          3.2291301641        0.8217060881        2.1811170001
