  62
        -98.94271282
 C         -1.1976663911       -1.6678419787        0.2077736107
 C         -1.6070968906       -0.7745019480        1.2231335003
 C         -2.8385063104       -0.0065388077        0.9719382600
 C         -3.4749025506       -0.1664524381       -0.2011937498
 C         -4.6958929804        0.5612221921       -0.6921777600
 C         -4.2935117301        1.8050870715       -1.5031313807
 C         -4.1114557395        3.0791266119       -0.6802411114
 H         -3.7259230793        3.8478100714       -1.3541876519
 H         -5.0859863693        3.4155107625       -0.3184457314
 C         -3.1596473693        2.9587829322        0.5125744185
 H         -2.2587154896        2.4175545717        0.2138011187
 H         -2.8407176689        3.9675159622        0.7846867979
 C         -3.8081000394        2.2957959131        1.7371426890
 H         -4.8870365594        2.2518679534        1.5882059592
 H         -3.6422326390        2.9234988735        2.6155587686
 C         -3.2767010298        0.9004579431        2.0894542096
 H         -2.3911574997        1.0033703531        2.7249138694
 H         -4.0297851099        0.3745900337        2.6870199300
 H         -3.3629645702        1.5782724409       -2.0308236207
 H         -5.0597862601        1.9962086814       -2.2575589407
 H         -5.2236748708       -0.1298651980       -1.3528243195
 H         -5.3498305202        0.8244962528        0.1338161900
 O         -3.0307418711       -1.0178885488       -1.1670889594
 C         -1.8817505514       -1.7718699191       -1.0025083992
 O         -1.5857156618       -2.4806439798       -1.9834977788
 H          0.4488405794        0.0299042403       -0.4882607205
 C          1.1846420291       -0.6398515402       -0.9036365603
 C          1.1335401086       -1.9904769300       -0.5910525395
 C          2.0733228182       -2.8362409707       -1.1675101092
 C          3.0229264483       -2.3326918615       -2.0402833397
 C          3.0750152287       -0.9828631117       -2.3390966704
 C          2.1420290791       -0.1282190511       -1.7633385807
 N          2.1435223396        1.2488182288       -2.0299307614
 S          1.7211069002        2.3222074596       -0.8172495519
 O          0.2989681503        2.2927977503       -0.5880889417
 O          2.2604708306        3.5890136392       -1.2650846327
 C          2.6274746802        1.7585047500        0.6124943282
 C          1.9938398602        1.1259446908        1.6617512887
 C          2.7597107802        0.6520273011        2.7163786588
 C          4.1351917602        0.8174462306        2.7063208285
 C          4.7567696603        1.4647362198        1.6486317180
 C          3.9983000403        1.9366908195        0.5910208979
 H          4.4415518504        2.4548386089       -0.2438993624
 H          5.8264916704        1.5983497094        1.6445985378
 H          4.7243012802        0.4421828208        3.5282081286
 H          2.2661857201        0.1504158517        3.5336897691
 H          0.9223556001        0.9997605212        1.6542279689
 H          2.9245786297        1.5806643182       -2.5757264217
 H          3.8191217288       -0.5942148824       -3.0171215907
 H          3.7403610379       -3.0020109820       -2.4901012394
 H          2.0565873579       -3.8897142906       -0.9408638287
 C          0.0858804186       -2.4541643991        0.3932109909
 H          0.4423410489       -2.1946537187        1.4023477907
 C         -0.1736380220       -3.9450268390        0.3383930617
 C          0.6506991078       -4.8880012289        1.1617957221
 C         -0.7746404020       -4.6173898982        1.5354356822
 H         -1.5095646423       -5.3921110680        1.3767578527
 H         -0.9700198616       -4.0027699976        2.4021940919
 H          0.8944547574       -5.8548912092        0.7480298326
 H          1.4242503581       -4.4644637189        1.7843273617
 H         -0.5076801722       -4.2724279094       -0.6394675780
 O         -0.9610245204       -0.6158466877        2.2957802201
