  62
        -98.94413481
 C         -0.7977051118       -1.1994362508        0.2920611292
 C         -1.5040340726       -0.3703742860        1.1995296459
 C         -2.4090771413        0.6199478389        0.6021613558
 C         -2.4477619200        0.7487680796       -0.7360298590
 C         -3.3917847801        1.6429470452       -1.4849707605
 C         -4.6891721953        0.8990267429       -1.8349825321
 C         -5.3216292358        0.1641071284       -0.6528769097
 H         -6.2448119752       -0.2958649780       -1.0120934481
 H         -4.6604501779       -0.6480723856       -0.3416299036
 C         -5.6325958831        1.0555498925        0.5577047853
 H         -5.6418632802        2.1028670605        0.2540391988
 H         -6.6337372830        0.8151932140        0.9217022941
 C         -4.6756833302        0.8791940345        1.7384475421
 H         -4.5963462785       -0.1814121585        1.9913470284
 H         -5.1061080714        1.3888330518        2.6046753905
 C         -3.2601028988        1.4345591451        1.5347215317
 H         -3.3206469058        2.4712223596        1.1984399546
 H         -2.7510828161        1.4122670591        2.5028826736
 H         -5.4022662975        1.6195823152       -2.2394740801
 H         -4.4685424357        0.1654037132       -2.6137571486
 H         -3.6182679452        2.5176583348       -0.8789914195
 H         -2.9080258166        1.9590858717       -2.4099797601
 O         -1.6605011288        0.0243178997       -1.5684241942
 C         -0.8326001323       -0.9811271022       -1.0862547206
 O         -0.1986789084       -1.5780358676       -1.9751326351
 O         -1.3925441356       -0.4642475626        2.4518582821
 C          0.0792783318       -2.2945321457        0.8712807721
 C          1.4350344033       -2.2835421946        0.2116805327
 C          2.0200882925       -3.3895923272       -0.3890574654
 C          3.2680299746       -3.2830127328       -0.9786896383
 C          3.9520963552       -2.0823344916       -0.9850657344
 C          3.3719032877       -0.9665699287       -0.3894867267
 C          2.1311880278       -1.0810059567        0.2129574398
 H          1.6851964184       -0.2192942594        0.6879920220
 N          4.0111027590        0.2763333447       -0.4285083178
 S          3.6272994067        1.5247005586        0.5958265153
 O          4.6552527496        2.5131562380        0.3460353169
 O          3.5075182206        1.0832456067        1.9664951266
 C          2.0691254874        2.1524933009        0.0065515290
 C          1.1225302538        2.5610844132        0.9247093926
 C         -0.0627019632        3.1125931645        0.4673579679
 C         -0.2804122260        3.2441462344       -0.8948832968
 C          0.6742558277        2.8177263032       -1.8046929121
 C          1.8639616513        2.2699004516       -1.3532302875
 H          2.6266611233        1.9298263292       -2.0340677141
 H          0.4954323290        2.9097175598       -2.8639630054
 H         -1.2001280303        3.6815510203       -1.2486899190
 H         -0.8092553333        3.4328840889        1.1761212811
 H          1.3249292227        2.4295411713        1.9763013923
 H          4.9548341290        0.2963329135       -0.7809250211
 H          4.9196957810       -2.0000694567       -1.4557388477
 H          3.7122595171       -4.1487210480       -1.4462783736
 H          1.4938090155       -4.3293003039       -0.4171480311
 H          0.2210383627       -2.0027869506        1.9264400165
 C         -0.5771040905       -3.6677304759        0.8849776084
 C         -2.0688505320       -3.8134322171        0.8862184107
 C         -1.2772489485       -4.2265951153       -0.3161677369
 H         -1.1769494399       -5.2818802141       -0.5238307732
 H         -1.3186185648       -3.6088987895       -1.1994310139
 H         -2.5084248200       -4.5809903277        1.5055468526
 H         -2.6603389407       -2.9113655561        0.8244341911
 H         -0.0293949993       -4.3733990147        1.5022226989
