  62
        -98.94113049
 C         -1.6612599140       -1.3512152074        0.3526989363
 C         -1.3899905002       -0.3083421954       -0.5625191659
 C         -2.0828657374        0.9695918018       -0.3306198239
 C         -2.8733171439        1.1058839920        0.7495738597
 C         -3.6412790858        2.3003407845        1.2762229725
 C         -3.9147852191        3.5088867616        0.3844982149
 C         -4.8454536438        3.2378997361       -0.7964349049
 H         -5.8459010838        3.0274598342       -0.4102721961
 H         -4.9045391786        4.1481448677       -1.3971059408
 C         -4.4412457496        2.0735651853       -1.6969959265
 H         -5.1732659981        2.0080623224       -2.5063770071
 H         -4.4974856470        1.1389875809       -1.1351343984
 C         -3.0557996241        2.1891933434       -2.3302095430
 H         -2.9657942247        3.1477718634       -2.8443594801
 H         -2.9714804553        1.3976171168       -3.0791530415
 C         -1.8669388008        2.0370757399       -1.3633956429
 H         -0.9933982460        1.7275026285       -1.9444379671
 H         -1.6130348359        2.9800155546       -0.8836962990
 H         -4.3946580998        4.2591117103        1.0191724355
 H         -2.9787774444        3.9398236878        0.0411372383
 H         -4.5930513598        1.9035899603        1.6445313415
 H         -3.0853482916        2.6407908060        2.1576244051
 O         -3.0605010035        0.0856109846        1.6395336338
 C         -2.4634516532       -1.1505048217        1.4715528332
 O         -2.7175916237       -1.9741507406        2.3767622459
 O         -0.5985622619       -0.4350149937       -1.5332216189
 C         -0.9748303226       -2.6975380159        0.1912521614
 C          0.5167681940       -2.4705596588        0.1713994836
 C          1.3734049629       -3.0019034000       -0.7835696306
 C          2.7160088222       -2.6622769631       -0.7920869579
 C          3.2260914322       -1.7707099528        0.1343681118
 C          2.3814922958       -1.2583224514        1.1093481127
 C          1.0503253867       -1.6308028559        1.1419806837
 H          0.3979858132       -1.2116833562        1.8992785238
 N          2.8853405069       -0.2656798034        2.0037875580
 S          2.4217294369        1.2706049645        1.4637486260
 O          3.0362592595        2.2088147322        2.3804817347
 O          0.9820673999        1.3805935289        1.3485952057
 C          3.2042687980        1.3579269375       -0.1281100824
 C          4.5217085687        1.7702927333       -0.1851832839
 C          5.1632638156        1.7936507516       -1.4126794048
 C          4.4804567417        1.3997957521       -2.5540498698
 C          3.1594438219        0.9863477337       -2.4775256779
 C          2.5088543195        0.9615117284       -1.2532275914
 H          1.4834539585        0.6349016929       -1.1638564501
 H          2.6257773371        0.6741473819       -3.3608068453
 H          4.9802400782        1.4138854499       -3.5098389087
 H          6.1906761696        2.1141562653       -1.4754242053
 H          5.0068583121        2.0674116191        0.7300228404
 H          2.5282613050       -0.3764809387        2.9445786200
 H          4.2587089545       -1.4629285325        0.1128592688
 H          3.3662586605       -3.0763159537       -1.5468335077
 H          0.9836089726       -3.6674961567       -1.5362750439
 H         -1.2315500302       -3.2820836832        1.0868627217
 C         -1.4967175169       -3.4160277168       -1.0349073637
 C         -1.4921917318       -4.9134515348       -1.0919342026
 C         -2.7855922194       -4.1731705141       -0.9356485921
 H         -3.4684419595       -4.1406051542       -1.7711887042
 H         -3.2760987432       -4.1908990667        0.0270783475
 H         -1.2907076351       -5.3932655089       -2.0376043668
 H         -1.1079506261       -5.4455366023       -0.2348939809
 H         -1.3095078745       -2.8651670064       -1.9493007410
