  62
        -98.94762126
 C         -1.8313378994       -1.3414455798       -0.0959326199
 C         -2.9327234393       -0.6178769298        0.4247954803
 C         -3.2525222189        0.6461201506       -0.2449288992
 C         -2.5091644088        1.0533757008       -1.2893404090
 C         -2.6928543384        2.3293099312       -2.0639946785
 C         -2.0018558582        3.5340481908       -1.4102301379
 C         -2.7012902781        4.0820998704       -0.1655909478
 H         -3.7581160181        4.2456950208       -0.3818038678
 H         -2.2557147379        5.0555416602        0.0492192727
 C         -2.5569639484        3.1939161499        1.0783162619
 H         -2.3023221884        3.8158776095        1.9404609721
 H         -1.7213167486        2.5031922998        0.9355791817
 C         -3.8145314987        2.4053321600        1.4473258515
 H         -4.6082125085        3.0989055401        1.7357430917
 H         -3.5818152089        1.7806872796        2.3138405212
 C         -4.3457057788        1.4920758006        0.3346908810
 H         -4.8211293786        2.0869203810       -0.4449491187
 H         -5.0915866290        0.8220468506        0.7700963507
 H         -1.9510177779        4.3307713011       -2.1563905976
 H         -0.9788309683        3.2494197104       -1.1493033480
 H         -2.2465600084        2.1662227215       -3.0473344485
 H         -3.7553515184        2.5383806415       -2.1920970185
 O         -1.4775168389        0.3211374608       -1.7778115392
 C         -1.0732953092       -0.8520505895       -1.1604354497
 O         -0.0523689793       -1.3576826196       -1.6659906398
 H         -0.1724265794       -0.4755206909        1.7155698206
 C          0.5398321305       -1.2570698710        1.4915213403
 C          0.0997288702       -2.4559134707        0.9422911098
 C          1.0393826700       -3.4409589708        0.6703282394
 C          2.3830654901       -3.2172596712        0.9218491696
 C          2.8206353203       -2.0018627115        1.4147978902
 C          1.8859418805       -1.0106386614        1.6911511905
 N          2.2658814608        0.2739729683        2.1409197310
 S          2.0356935412        1.5132227688        1.0293675715
 O          2.4877667314        2.7144727884        1.6993639020
 O          0.6724210412        1.5151864993        0.5692620014
 C          3.1724282912        1.1124899291       -0.2858288786
 C          4.4231288113        1.7012438588       -0.2709526582
 C          5.3509558413        1.3333053890       -1.2310295783
 C          5.0175991911        0.3769104094       -2.1788462287
 C          3.7602676210       -0.2062896303       -2.1768320890
 C          2.8230235210        0.1597484496       -1.2215607390
 H          1.8372685009       -0.2803122702       -1.2076680492
 H          3.4935282509       -0.9505768399       -2.9099338094
 H          5.7407799711        0.0843126296       -2.9237197088
 H          6.3283904014        1.7882168987       -1.2350739380
 H          4.6345289114        2.4402940684        0.4851481121
 H          3.2176057308        0.3188531580        2.4806562211
 H          3.8719160103       -1.8147477418        1.5755893303
 H          3.1019826599       -3.9921827913        0.7040341794
 H          0.7249766398       -4.3771682805        0.2391468490
 C         -1.3767889798       -2.5803046002        0.6575695196
 H         -1.9135453698       -2.5213817705        1.6202138596
 C         -1.7728542800       -3.9045559499        0.0237644590
 C         -2.9255267400       -3.9889512492       -0.9305028811
 C         -1.5279029100       -4.2051501793       -1.4235589511
 H         -1.2322767102       -5.2081974493       -1.6945280414
 H         -1.0672136298       -3.4341745992       -2.0200568307
 H         -3.4231954998       -3.0668049990       -1.1945987507
 H         -3.5880984402       -4.8386770491       -0.8610265815
 H         -1.6674169703       -4.7335091602        0.7170507587
 O         -3.6081881595       -1.0062551200        1.4167724701
