  62
        -98.93455307
 C         -2.2144005096       -1.2625835602        0.3149561804
 C         -2.5192753300       -0.3032875401       -0.6776951494
 C         -3.4040663699        0.8130395498       -0.2780429091
 C         -3.8233651196        0.8917809997        0.9975968611
 C         -4.7399102694        1.9128142396        1.6163264514
 C         -6.2160068395        1.6820214595        1.2499440719
 C         -6.4687459000        1.3152080196       -0.2103823281
 H         -5.8894017800        0.4246888897       -0.4612028483
 H         -7.5253866000        1.0529398596       -0.3088129878
 C         -6.1664594003        2.4188159997       -1.2211522581
 H         -6.4472533606        2.0422984198       -2.2081816180
 H         -6.7963956403        3.2845886396       -1.0044706078
 C         -4.7114935604        2.8860730498       -1.2862696785
 H         -4.4683576701        3.5250494097       -0.4415951685
 H         -4.6084087707        3.5054497799       -2.1823173685
 C         -3.6831583004        1.7662883898       -1.4158016189
 H         -2.7143487505        2.2145876199       -1.6704785292
 H         -3.9450646206        1.1390056899       -2.2755887089
 H         -6.7799183195        2.5805277795        1.5053653221
 H         -6.5902500593        0.8614721294        1.8667897819
 H         -4.6305573091        1.8162389695        2.6987975014
 H         -4.4203125396        2.9136790696        1.3410229314
 O         -3.4744337892       -0.0369992704        1.9327067109
 C         -2.6805512592       -1.1216418203        1.6249483506
 O         -2.4627857589       -1.8881879804        2.5845779804
 O         -2.0898464904       -0.3501130800       -1.8612710396
 C         -1.3423256097       -2.4840279001        0.0636499400
 C          0.1105668404       -2.1217289401        0.2328869896
 C          0.9169608507       -2.7812585601        1.1519163593
 C          2.2387087407       -2.4068379600        1.3232561989
 C          2.7808750904       -1.3709189100        0.5838438088
 C          1.9807176901       -0.7018324399       -0.3333073909
 C          0.6588169301       -1.0814851600       -0.5059998205
 H          0.0378661298       -0.5587998000       -1.2192256503
 N          2.5217691598        0.3593424902       -1.0876133710
 S          3.1514106300        1.6476297701       -0.2081715511
 O          2.4922168804        1.7856569500        1.0711994892
 O          3.0822919097        2.7893366202       -1.0942128309
 C          4.8577427301        1.1966612702        0.0268184184
 C          5.3830742005        1.1291456301        1.3023011082
 C          6.7143896306        0.7759883602        1.4603593478
 C          7.4917852503        0.4989411803        0.3461950475
 C          6.9493696699        0.5742451904       -0.9282801523
 C          5.6196923298        0.9275482603       -1.0935003619
 H          5.1594040695        0.9997776004       -2.0647361417
 H          7.5571039196        0.3576810305       -1.7919919225
 H          8.5266080203        0.2223052104        0.4721752272
 H          7.1375701109        0.7171340101        2.4503028776
 H          4.7371370208        1.3456158000        2.1382950184
 H          1.8793716296        0.7050774302       -1.7876490207
 H          3.8084011605       -1.0734694899        0.7158088285
 H          2.8533641110       -2.9260572101        2.0425405387
 H          0.4953461109       -3.5777997802        1.7474195894
 H         -1.6036958494       -3.1880138202        0.8690202101
 C         -1.6496495200       -3.1718310301       -1.2605469399
 C         -0.6697746304       -3.2909656899       -2.3859054102
 C         -1.0184627901       -4.4972346100       -1.5707154602
 H         -1.6266649102       -5.2701124800       -2.0154210701
 H         -0.2740524098       -4.8619978600       -0.8789076005
 H         -1.0551575707       -3.2116580699       -3.3910973401
 H          0.3110287896       -2.8598743599       -2.2618622005
 H         -2.6898804501       -3.0527394201       -1.5454419396
