  62
        -98.94666813
 C         -1.1725332384       -1.2617943801        0.0768448097
 C         -1.5740539590       -0.2907593499        1.0269623392
 C         -2.4181657493        0.7977008096        0.5217157085
 C         -2.7029734790        0.8493902689       -0.7923175416
 C         -3.6288939393        1.8441883683       -1.4294379223
 C         -5.0690651691        1.3120921477       -1.4600972323
 C         -5.5592718492        0.7749468981       -0.1152581622
 H         -6.5964374590        0.4603454177       -0.2498899323
 H         -4.9850176789       -0.1173294615        0.1442659183
 C         -5.4770495398        1.7829193487        1.0398111674
 H         -5.3829267301        2.7945373985        0.6435996669
 H         -6.4099214799        1.7432265886        1.6062177672
 C         -4.3427205399        1.5188185496        2.0319683377
 H         -4.3846233996        0.4791858997        2.3666691982
 H         -4.5043398204        2.1508495399        2.9092688474
 C         -2.9261917899        1.8029932399        1.5158895079
 H         -2.8819718202        2.8116623097        1.1013818175
 H         -2.2446873901        1.7518173105        2.3698519081
 H         -5.7269607293        2.1168010473       -1.7933900628
 H         -5.1245700386        0.5032187574       -2.1922450020
 H         -3.5938758697        2.7795169385       -0.8741217827
 H         -3.2983745291        2.0212778279       -2.4543009123
 O         -2.2102424285       -0.0386364313       -1.6900332511
 C         -1.4326732482       -1.1146937308       -1.2861307304
 O         -1.0488080777       -1.8407031911       -2.2211277800
 H          1.2878579410       -0.7111568685        1.6513642900
 C          1.7830276414       -1.2616750887        0.8615311704
 C          1.0744890519       -2.2478645793        0.1839777606
 C          1.7112097924       -2.9404305795       -0.8366851689
 C          3.0233567824       -2.6459849591       -1.1694602887
 C          3.7264608618       -1.6661346486       -0.4919103690
 C          3.0962864513       -0.9701858183        0.5318281805
 N          3.8030347408        0.0467695422        1.2173459402
 S          4.0853673705        1.4341041019        0.3242354797
 O          4.9057946309        1.0942292117       -0.8091477500
 O          4.6355332999        2.3956181826        1.2515841993
 C          2.4748094804        1.9715121211       -0.2240853009
 C          1.9032559909        1.3631625204       -1.3238969608
 C          0.6370585408        1.7588760297       -1.7232654513
 C         -0.0314697497        2.7484457498       -1.0194351419
 C          0.5506542098        3.3399610805        0.0907327580
 C          1.8143064199        2.9453524012        0.4976791585
 H          2.3076306495        3.3844734417        1.3500705484
 H          0.0236422494        4.1045718606        0.6383667175
 H         -1.0118030797        3.0597628293       -1.3420621922
 H          0.1742854012        1.2857682592       -2.5754827712
 H          2.4520229813        0.6019517103       -1.8547681503
 H          3.3602938405        0.3088988925        2.0879662000
 H          4.7419008518       -1.4144190683       -0.7510638189
 H          3.5052671227       -3.1887480693       -1.9685652084
 H          1.1751074028       -3.6985181599       -1.3830988987
 C         -0.3683324581       -2.4551379996        0.5690717204
 H         -0.4284150084       -2.4095341991        1.6656571904
 C         -0.9519891075       -3.7715882500        0.1059768409
 C         -0.5585339272       -5.0352043196        0.8087614115
 C         -1.9393696274       -4.4799436400        0.9824548710
 H         -2.7659380971       -4.9944535105        0.5157653110
 H         -2.1901920178       -4.0210211597        1.9278313807
 H         -0.4357895967       -5.9342418598        0.2245844420
 H          0.1295769526       -4.9514300490        1.6363897016
 H         -1.1202020373       -3.8150857206       -0.9627515291
 O         -1.2487724493       -0.3404852992        2.2445557393
