  62
        -98.94141082
 C         -1.6647703513       -1.1669341689        0.1681707108
 C         -1.6871989710        0.1955288310        0.5621555613
 C         -2.7843084208        1.0144625214        0.0332341115
 C         -3.6819501909        0.4474871118       -0.7932868287
 C         -4.8799041508        1.1445401223       -1.3687521385
 C         -6.1081211508        0.9777295822       -0.4633247187
 C         -5.8404478508        1.3047108316        1.0058130915
 H         -6.7835666309        1.1849172816        1.5434280814
 H         -5.1432637210        0.5691919813        1.4139100612
 C         -5.2874194406        2.7156515814        1.2508082420
 H         -5.8223578505        3.1602472912        2.0926522621
 H         -5.4758442604        3.3441617818        0.3797320722
 C         -3.7978523906        2.7610378410        1.5963354721
 H         -3.5889583308        2.0610663707        2.4094936418
 H         -3.5641401604        3.7645170708        1.9621743024
 C         -2.8334275806        2.4600077112        0.4420800720
 H         -3.0754986504        3.0943999516       -0.4132868178
 H         -1.8247370406        2.7092467009        0.7852789022
 H         -6.9055754807        1.6201312525       -0.8412256985
 H         -6.4476821910       -0.0586578177       -0.5271234090
 H         -4.6519535905        2.2008055123       -1.4976400482
 H         -5.0970535808        0.7062750826       -2.3442221487
 O         -3.6195218911       -0.8538106180       -1.1661795992
 C         -2.6132595513       -1.6980246284       -0.7072287994
 O         -2.6940600815       -2.8559565782       -1.1532018299
 H          1.9799258987       -1.2000604200        1.3641327710
 C          1.8866480787       -1.4478049496        0.3176790109
 C          0.6734317886       -1.8868669592       -0.1893945494
 C          0.5798606686       -2.1841900587       -1.5464045595
 C          1.6836352887       -2.0519514386       -2.3679888794
 C          2.8902312488       -1.5998164390       -1.8608864491
 C          2.9906455687       -1.2894487095       -0.5104012690
 N          4.2015209788       -0.8281562899        0.0345322512
 S          4.2044535090        0.5551636997        0.9819220817
 O          5.6028992091        0.9074047294        1.0958506819
 O          3.5107946689        0.3047692394        2.2178189516
 C          3.3595199193        1.7746587302       -0.0080831379
 C          1.9850634093        1.8891490805        0.0447841420
 C          1.3616893495        2.7951415909       -0.8001161877
 C          2.1117872197        3.5672146011       -1.6725610174
 C          3.4928535497        3.4436148708       -1.7081895473
 C          4.1226519695        2.5351162804       -0.8744046676
 H          5.1935113795        2.4104632502       -0.8640021976
 H          4.0765665898        4.0483667909       -2.3834016771
 H          1.6168005199        4.2696576114       -2.3245074771
 H          0.2867755195        2.8820561211       -0.7655246877
 H          1.4078269892        1.2906743203        0.7323706218
 H          4.9611245788       -0.7908974899       -0.6307103688
 H          3.7484115688       -1.4880231290       -2.5059705291
 H          1.6020364887       -2.2934794882       -3.4169841595
 H         -0.3661876114       -2.5206473784       -1.9440431696
 C         -0.5238276314       -2.0043787893        0.7187453505
 H         -0.2544729814       -1.5227668597        1.6730630607
 C         -0.9069957717       -3.4421975093        1.0353303900
 C         -0.3633227519       -4.6291080792        0.3038460596
 C          0.0926276381       -4.3418802298        1.7007968598
 H         -0.2392029921       -4.9855871900        2.5013046095
 H          1.0933699781       -3.9560321900        1.8304898999
 H          0.3329869481       -4.4619936590       -0.5023411203
 H         -1.0333493021       -5.4580815690        0.1345151093
 H         -1.9338954118       -3.5225269493        1.3766626899
 O         -0.8233536410        0.7020571905        1.3283749215
