  62
        -98.94117329
 C          2.1571378494        0.7207356302       -0.3681802204
 C          3.2667490895        0.7813992904        0.5153191496
 C          3.9121707196       -0.4955067495        0.8426941497
 C          3.4050232896       -1.6342765896        0.3370231698
 C          3.9871217797       -3.0014820196        0.5462247499
 C          4.9933666897       -3.3515109496       -0.5592923401
 C          6.0301219296       -2.2586095696       -0.8195052002
 H          6.7037583396       -2.6279943196       -1.5956784302
 H          5.5256731095       -1.3781024896       -1.2238820003
 C          6.8468264896       -1.8513272694        0.4148181197
 H          6.7682908597       -2.6222694193        1.1821760398
 H          7.8990476196       -1.7820898193        0.1311752896
 C          6.4577479096       -0.4989135993        1.0148421595
 H          6.4440410095        0.2604218306        0.2289716595
 H          7.2289989896       -0.2114693592        1.7343016595
 C          5.1110172896       -0.4571452793        1.7481757896
 H          5.0653024397       -1.2651235893        2.4813014997
 H          5.0519777096        0.4952134607        2.2831226695
 H          5.4996740298       -4.2783030995       -0.2835508300
 H          4.4417769697       -3.5277176597       -1.4856102500
 H          4.4724009898       -3.0383650694        1.5196453399
 H          3.1727136298       -3.7278051296        0.5292134701
 O          2.3182011296       -1.6597766098       -0.4731131201
 C          1.6718817495       -0.4928800799       -0.8555201602
 O          0.7075472395       -0.6902543900       -1.6212934802
 H         -0.9349336806        0.9122612799       -1.2661985403
 C         -0.9569578406        1.5085469200       -0.3670607303
 C          0.1950564693        2.1616641701        0.0460999096
 C          0.1583168293        2.8873736102        1.2320769495
 C         -1.0027766706        2.9562643402        1.9810988595
 C         -2.1486434406        2.2996527501        1.5681520997
 C         -2.1174801806        1.5625699000        0.3917904497
 N         -3.2742522306        0.8732173899       -0.0385884001
 S         -3.9263946804       -0.2121789401        1.0832180300
 O         -4.6136182004        0.5455125300        2.0991349500
 O         -2.9056495604       -1.1218209299        1.5583949701
 C         -5.1115111004       -1.0736875003        0.0700553402
 C         -6.3585229705       -0.5099991204       -0.1211129498
 C         -7.2710757105       -1.1646471905       -0.9327858297
 C         -6.9229941904       -2.3638212706       -1.5366096596
 C         -5.6671792904       -2.9167002604       -1.3354127696
 C         -4.7488733104       -2.2661581303       -0.5261954897
 H         -3.7632148303       -2.6619966802       -0.3373144697
 H         -5.3987447703       -3.8495330205       -1.8048199495
 H         -7.6349080004       -2.8730206407       -2.1668151995
 H         -8.2489219805       -0.7394615506       -1.0910848097
 H         -6.5858062005        0.4185246097        0.3756001501
 H         -3.0849941806        0.3718514198       -0.8981414601
 H         -3.0538829206        2.3278598701        2.1523926197
 H         -1.0162299906        3.5236880803        2.8996430495
 H          1.0572289993        3.3811719303        1.5730427894
 C          1.4858276293        2.0377723501       -0.7269567405
 H          2.1695614593        2.8152038202       -0.3608239106
 C          1.3006094492        2.2227958400       -2.2191937705
 C          1.0087086091        3.5939287499       -2.7486012206
 C          2.3442436691        2.9624362299       -2.9991894506
 H          2.5771761491        2.6231721298       -3.9973964706
 H          3.1983164591        3.3418328201       -2.4573402807
 H          0.3220952491        3.6916721497       -3.5752590606
 H          0.9556693591        4.4015821199       -2.0343107607
 H          0.8263305193        1.3810381399       -2.7066467504
 O          3.7014112894        1.8593822405        1.0015838094
