  62
        -98.94320911
 C          1.8753865697        1.1681676200        0.3297969405
 C          2.4211255599        0.1609535102        1.1675412006
 C          3.8249791799       -0.1905570196        0.9304150906
 C          4.5210267598        0.4551067005       -0.0226285095
 C          5.9692722998        0.2350998507       -0.3664107995
 C          6.2129613700       -0.9334784293       -1.3308791794
 C          6.0261119603       -2.3254610593       -0.7260905493
 H          6.4361591904       -3.0427826393       -1.4397582192
 H          6.6134106303       -2.4051591091        0.1892078407
 C          4.5654431104       -2.6990431196       -0.4364799092
 H          3.9004932702       -2.0290632097       -0.9868169592
 H          4.3688426806       -3.7108118496       -0.7984559591
 C          4.1833009204       -2.6670285695        1.0435808308
 H          3.1204101705       -2.9095182197        1.1282616209
 H          4.7460723506       -3.4313432693        1.5843745009
 C          4.4164653002       -1.3134846594        1.7275617807
 H          5.4826275801       -1.1498131192        1.8839066606
 H          3.9177066202       -1.3306119394        2.6998261007
 H          5.5513810600       -0.8193150496       -2.1926222294
 H          7.2420277600       -0.8515044992       -1.6881329194
 H          6.3175757396        1.1535077807       -0.8437748296
 H          6.5425806099        0.0793457009        0.5479073305
 O          3.9707577096        1.4304845203       -0.7895215496
 C          2.6375623195        1.7972136700       -0.6553336296
 O          2.2858572093        2.6855184399       -1.4539313697
 O          1.7671812700       -0.4097219199        2.0818539506
 C          0.4132047696        1.5284254097        0.5405363005
 C         -0.4299495103        0.9007145695       -0.5435706594
 C         -0.5552982504        1.4675738093       -1.8080287295
 C         -1.3094646503        0.8414281591       -2.7832723194
 C         -1.9688140801       -0.3454020710       -2.5150575793
 C         -1.8493302900       -0.9211390908       -1.2563736492
 C         -1.0800209301       -0.2986436706       -0.2831599293
 H         -0.9807326400       -0.7682032105        0.6846484607
 N         -2.5120691597       -2.1246662009       -0.9481057891
 S         -3.4903312097       -2.1501485810        0.4114600409
 O         -2.6872893197       -2.1620964707        1.6063350209
 O         -4.3632394495       -3.2867221112        0.2148371211
 C         -4.4230630400       -0.6343214312        0.2982758008
 C         -5.5086027600       -0.5982280915       -0.5552175692
 C         -6.1972398202        0.5929206784       -0.7151272593
 C         -5.7839723904        1.7249730885       -0.0292495994
 C         -4.6933777204        1.6723308688        0.8247381406
 C         -4.0027372702        0.4822414290        0.9918004307
 H         -3.1523378102        0.3977036192        1.6491590607
 H         -4.3753699406        2.5540279389        1.3581489205
 H         -6.3155801106        2.6544715284       -0.1578600695
 H         -7.0493065603        0.6361596382       -1.3741635693
 H         -5.8017792699       -1.5035147116       -1.0618211191
 H         -3.0008722797       -2.5322800311       -1.7328785590
 H         -2.5628302800       -0.8289926312       -3.2757932692
 H         -1.3913490504        1.2873203590       -3.7628403394
 H         -0.0300075306        2.3819515094       -2.0309943996
 H          0.1405028597        1.0486738098        1.4907942705
 C          0.1804116093        3.0195378697        0.6718632804
 C         -1.0813141307        3.4991897495        1.3218076503
 C          0.2302683392        3.6468293999        2.0313913703
 H          0.6599129291        4.6326358799        2.1276228102
 H          0.4320025694        3.0002915100        2.8734115204
 H         -1.5581605909        4.3848600594        0.9317665303
 H         -1.7667395606        2.7481023894        1.6841147404
 H          0.5792019892        3.5971652297       -0.1512667597
