  62
        -98.94738682
 C         -2.5670403287       -0.1422622969       -0.3983138039
 C         -2.1642813861       -0.7068506926        0.8361942492
 C         -1.7161144605       -2.1056892389        0.7849526466
 C         -1.6971376318       -2.7487395269       -0.3965200009
 C         -1.2381720698       -4.1636921351       -0.5997709018
 C          0.2540609493       -4.2299813416       -0.9493795349
 C          1.1520487364       -3.4393154575        0.0025722750
 H          2.1853205565       -3.6132955908       -0.3083191986
 H          0.9641785705       -2.3697806773       -0.1241534473
 C          0.9935342312       -3.8094553183        1.4838532462
 H          0.5186005384       -4.7877935845        1.5740559996
 H          1.9871999913       -3.8863432628        1.9299614717
 C          0.2152617858       -2.7827562525        2.3093949022
 H          0.3776289495       -3.0022517760        3.3685027901
 H          0.6138558245       -1.7847772650        2.1119586378
 C         -1.3009015890       -2.7493613519        2.0777112673
 H         -1.7094529747       -3.7601232476        2.1531274913
 H         -1.7438084475       -2.1379447336        2.8695816799
 H          0.5592041875       -5.2785316952       -0.9524955293
 H          0.3932301445       -3.8297889769       -1.9565317541
 H         -1.4353128483       -4.7348913474        0.3055154916
 H         -1.8128974728       -4.5929212497       -1.4227233408
 O         -2.0811938394       -2.1692781857       -1.5639965908
 C         -2.5061883409       -0.8519292690       -1.5958623945
 O         -2.8111020380       -0.4359598080       -2.7341573951
 O         -2.1954318824       -0.0800316290        1.9280587074
 C         -3.0131294469        1.3076398828       -0.4592102566
 C         -1.9010875363        2.2042918691        0.0309483460
 C         -2.1110799755        3.3199112501        0.8315695257
 C         -1.0395408381        4.0870021810        1.2559019459
 C          0.2564946409        3.7522950469        0.9088385936
 C          0.4751080482        2.6466618179        0.0950271904
 C         -0.6017455055        1.9005153375       -0.3526054929
 H         -0.4200513350        1.0447507004       -0.9872287013
 N          1.7746301528        2.2672291773       -0.2957915718
 S          2.0871437047        0.6023234849       -0.2779212277
 O          1.6271469207        0.0250080207       -1.5170943930
 O          1.5736151993        0.0217845366        0.9399058378
 C          3.8701393144        0.6035298116       -0.2551800984
 C          4.5400368269        0.2877282276        0.9111282986
 C          5.9260926544        0.3186359655        0.9169382593
 C          6.6136158823        0.6658914871       -0.2360202048
 C          5.9267710618        0.9790627806       -1.4000023105
 C          4.5415343065        0.9479359128       -1.4133282353
 H          3.9645097338        1.1733080760       -2.2950858319
 H          6.4645641218        1.2458085851       -2.2954089161
 H          7.6918116579        0.6901089207       -0.2287080681
 H          6.4622862397        0.0718178077        1.8190056646
 H          3.9614517737        0.0189962063        1.7803952783
 H          2.4891728512        2.7681380763        0.2167029705
 H          1.0915811557        4.3376387785        1.2629807242
 H         -1.2157832395        4.9484035488        1.8822492751
 H         -3.1123615213        3.5821326981        1.1321598750
 H         -3.1830373590        1.5278082880       -1.5243250717
 C         -4.3148954377        1.4961740814        0.2922677612
 C         -5.3013909541        2.5341179938       -0.1494710959
 C         -5.5941481073        1.0810591796       -0.3680510688
 H         -6.3557670876        0.6088826550        0.2339341564
 H         -5.5253060439        0.6879804176       -1.3722931922
 H         -5.8680548723        3.0602636031        0.6039035960
 H         -5.0459077679        3.1324777491       -1.0109719582
 H         -4.2119615132        1.3008958122        1.3534624429
