  62
        -98.93968816
 C         -1.2406835709       -1.6567925046        0.0696846310
 C         -2.2434449119       -1.0771517010        0.8827757659
 C         -2.9781265419        0.0794285068        0.3335928558
 C         -2.6646131592        0.5149503366       -0.9001178179
 C         -3.2360367926        1.6891196690       -1.6496566620
 C         -2.6886791687        3.0345545731       -1.1455328342
 C         -2.6236082997        3.1744198856        0.3733912243
 H         -1.9954938137        2.3825314556        0.7884833777
 H         -2.1239152291        4.1207008022        0.5991747811
 C         -3.9750235553        3.1789141311        1.0849826244
 H         -4.5775463002        4.0057058715        0.7018562680
 H         -3.7808702767        3.3720136791        2.1433704719
 C         -4.7951790277        1.8909581116        0.9804992610
 H         -5.2809798086        1.8116171666        0.0116251874
 H         -5.5948482276        1.9546722760        1.7242913883
 C         -4.0178702604        0.6148091579        1.2874810744
 H         -3.5085794697        0.7294427351        2.2519186691
 H         -4.7333025898       -0.2035590215        1.4361646875
 H         -1.6735208623        3.1584271978       -1.5305444536
 H         -3.3067019189        3.8340673466       -1.5576083932
 H         -2.9482762050        1.5661115851       -2.6960452105
 H         -4.3206446882        1.6704853373       -1.6017316667
 O         -1.6889242181       -0.0723818037       -1.6482969971
 C         -0.9244586445       -1.1312660120       -1.1827645021
 O         -0.0297314723       -1.4911696130       -1.9679910816
 O         -2.5141274257       -1.4996696408        2.0403819958
 C         -0.4245131142       -2.7952893288        0.6532311157
 C          1.0443690902       -2.4790424176        0.5198995199
 C          1.9541002008       -3.2852977139       -0.1503155819
 C          3.2867562277       -2.9191909124       -0.2272852492
 C          3.7361185516       -1.7480564607        0.3535041765
 C          2.8333918258       -0.9336311498        1.0289334066
 C          1.5024647495       -1.3070962507        1.1115130885
 H          0.8081889160       -0.6689426328        1.6397097396
 N          3.2638614123        0.2520800417        1.6527244156
 S          2.4204381097        1.6763271082        1.4263284025
 O          3.3038083956        2.6981749860        1.9460800332
 O          1.1180001610        1.5924617071        2.0363891608
 C          2.2759284721        1.8529833508       -0.3395839324
 C          1.0683703306        1.5944872338       -0.9509225471
 C          0.9813015662        1.6810651246       -2.3308320207
 C          2.1024625098        2.0213027984       -3.0705807882
 C          3.3097573106        2.2862636249       -2.4411182162
 C          3.4015799529        2.1987914854       -1.0621572480
 H          4.3178555385        2.4085543213       -0.5343322998
 H          4.1775286744        2.5550807684       -3.0217301244
 H          2.0317693089        2.0804949452       -4.1452148623
 H          0.0446602897        1.4582189055       -2.8162670813
 H          0.2211268302        1.3282457718       -0.3382953452
 H          4.2567438134        0.4203183846        1.5730330240
 H          4.7753704126       -1.4635857266        0.2894180503
 H          3.9839142187       -3.5519132213       -0.7551047220
 H          1.6170841827       -4.1900542260       -0.6284197846
 H         -0.6712484506       -2.7785352715        1.7288688784
 C         -0.8031563831       -4.1792118279        0.1494515476
 C         -2.1913871426       -4.4670096893       -0.3372509214
 C         -1.0430585249       -4.4790946971       -1.2988125496
 H         -0.7113341481       -5.4327363695       -1.6830756374
 H         -0.9472206291       -3.6668206679       -2.0010453390
 H         -2.6477958828       -5.4064082356       -0.0632412676
 H         -2.8860053368       -3.6403632219       -0.3803376471
 H         -0.3308216638       -4.9622840004        0.7351610209
