  62
        -98.94231126
 C         -0.8877938501       -1.2988826725       -0.0167669512
 C         -1.8658378208       -1.0046930216        0.9590907654
 C         -2.6133564729        0.2510941560        0.7800962864
 C         -2.3254233532        1.0433510343       -0.2666780602
 C         -2.9320381391        2.3755390187       -0.6339004780
 C         -4.4488949826        2.5376683642       -0.4707627036
 C         -5.2692124059        1.2720038525       -0.7593947379
 H         -6.0588749382        1.5151474691       -1.4725614976
 H         -4.6350919377        0.5125213272       -1.2195493197
 C         -5.9299727733        0.6913602189        0.4928321942
 H         -6.7603969905        0.0501509580        0.1877851775
 H         -6.3488261896        1.5108195150        1.0810199258
 C         -5.0155836353       -0.1472414809        1.3849907764
 H         -4.7705110930       -1.0881257356        0.8848918386
 H         -5.5697424244       -0.4020090542        2.2916930243
 C         -3.6913807052        0.5211784627        1.7901160555
 H         -3.8227816560        1.5864543343        1.9653410764
 H         -3.3515287588        0.0589722687        2.7214634725
 H         -4.6730144607        2.8853894533        0.5366632079
 H         -4.7550099069        3.3335620672       -1.1519610541
 H         -2.4251925929        3.1509547410       -0.0513058434
 H         -2.6626618398        2.5276343875       -1.6816855753
 O         -1.3590885690        0.7287291956       -1.1750372950
 C         -0.6115417464       -0.4329413986       -1.0734248706
 O          0.2434004795       -0.5763412141       -1.9664039701
 O         -2.1020455359       -1.7564119560        1.9447519628
 C         -0.0840005869       -2.5779634871        0.1020365475
 C          1.3963722280       -2.2907135486        0.1506960084
 C          2.3431853823       -3.1464153437       -0.4005118778
 C          3.6921132566       -2.8505580675       -0.3139836327
 C          4.1256252582       -1.6948619796        0.3090737317
 C          3.1864970375       -0.8347606260        0.8672385148
 C          1.8381119955       -1.1441987074        0.7975459637
 H          1.1229693980       -0.4715002589        1.2481128789
 N          3.5866605102        0.3484738805        1.5084165653
 S          2.6590966548        1.7274671161        1.4092387137
 O          3.5690911656        2.7889678928        1.7920354291
 O          1.4776059996        1.6053644641        2.2287616603
 C          2.1966689474        1.9644770333       -0.2976031896
 C          1.0381942675        2.6707749770       -0.5462045194
 C          0.6867353283        2.9514271800       -1.8556935837
 C          1.4929559744        2.5130766226       -2.8928760148
 C          2.6522136436        1.8030275517       -2.6284024303
 C          3.0164450721        1.5323860607       -1.3197568883
 H          3.9151749044        0.9802998088       -1.0989520735
 H          3.2722913083        1.4529593354       -3.4377865048
 H          1.2107466661        2.7190721188       -3.9132924564
 H         -0.2186911868        3.4996910112       -2.0607563487
 H          0.4281294213        2.9722175264        0.2915097385
 H          4.5729539312        0.5573964013        1.4571732536
 H          5.1771442202       -1.4583653631        0.3675499751
 H          4.4158084234       -3.5243786249       -0.7463896697
 H          2.0232049749       -4.0460788218       -0.8999923290
 H         -0.3775766002       -3.0213905784        1.0662824860
 C         -0.4654537029       -3.5362270376       -1.0098423172
 C         -0.4840690796       -5.0160734540       -0.7725162404
 C         -1.7719164738       -4.2642785795       -0.9166220304
 H         -2.3543740159       -4.3990785560       -1.8156653854
 H         -2.3682146909       -4.0951779995       -0.0316125532
 H         -0.1839061992       -5.6711586427       -1.5765443669
 H         -0.2148968771       -5.3698041157        0.2113595945
 H         -0.1619922912       -3.1758876611       -1.9865280953
