  62
        -98.93762572
 C         -2.6494712004       -1.1092518021        0.2014563104
 C         -2.7210951569       -0.2373374021       -0.9108357505
 C         -3.5088200006        0.9930703280       -0.7210920316
 C         -4.1090847943        1.2195283567        0.4598365453
 C         -4.9812645427        2.3844118984        0.8558233900
 C         -4.5069459694        3.7892405837        0.4547087598
 C         -2.9831846551        3.9724479650        0.3949597114
 H         -2.7110187448        4.8610223441        0.9679281106
 H         -2.4838661287        3.1208741510        0.8610563945
 C         -2.4584315769        4.1555772433       -1.0315555896
 H         -3.1303596905        4.8309761313       -1.5655661174
 H         -1.4791223257        4.6379847740       -0.9856467709
 C         -2.2924994539        2.8709924094       -1.8430251123
 H         -1.4536260194        2.2884147780       -1.4516548528
 H         -2.0351627075        3.1514635222       -2.8670387858
 C         -3.5216535635        1.9482329650       -1.8794402177
 H         -4.4447378649        2.5212939518       -1.9194203198
 H         -3.4516317625        1.3321435422       -2.7797866752
 H         -4.9319792526        4.0543106831       -0.5123832247
 H         -4.9275740822        4.4839063712        1.1836351423
 H         -5.9818506850        2.2147783770        0.4480992141
 H         -5.0622288469        2.3215230085        1.9436549329
 O         -4.0157557682        0.3471649954        1.5046877719
 C         -3.2781424365       -0.8210384172        1.4101436795
 O         -3.2543288018       -1.5022991834        2.4567648532
 H         -0.3528103686       -0.4178114844        1.1263600592
 C          0.2147922767       -0.9917159914        0.4024785997
 C         -0.3985304278       -2.0589511852       -0.2422364272
 C          0.3488409424       -2.7973672144       -1.1501964993
 C          1.6636262693       -2.4562502087       -1.4177360653
 C          2.2606585653       -1.3777823407       -0.7920201192
 C          1.5276190684       -0.6407823157        0.1291352204
 N          2.1191282783        0.4663752789        0.7632031715
 S          3.6103259478        0.2513512682        1.5054809999
 O          3.7805615508       -1.1073012547        1.9663138677
 O          3.6811331390        1.2858956324        2.5144513238
 C          4.7859579029        0.6138724804        0.2189754874
 C          4.6828510262        1.8269714797       -0.4331749714
 C          5.5964643640        2.1299610650       -1.4299399477
 C          6.5938328028        1.2217423886       -1.7530668941
 C          6.6856926277        0.0095101754       -1.0865412613
 C          5.7738768646       -0.3006312705       -0.0893576577
 H          5.8017211905       -1.2331042775        0.4514757507
 H          7.4616850668       -0.6949549908       -1.3393941655
 H          7.3034639338        1.4606687817       -2.5293630385
 H          5.5274560003        3.0712527482       -1.9510538916
 H          3.8949210780        2.5050815208       -0.1504167330
 H          1.4905620650        0.9660734225        1.3753456320
 H          3.2807156792       -1.1033597370       -1.0057437532
 H          2.2300763631       -3.0361380430       -2.1302295189
 H         -0.0996998510       -3.6386445525       -1.6523545496
 C         -1.8318557137       -2.3835644044        0.1073902370
 H         -1.8420918135       -2.8279237265        1.1142942606
 C         -2.4827661053       -3.3521857164       -0.8586152585
 C         -2.3542372768       -4.8305369449       -0.6511850302
 C         -3.6632893516       -4.1485607847       -0.3932784716
 H         -4.4781633600       -4.3142998150       -1.0817755465
 H         -3.9789619162       -4.0118687644        0.6312185352
 H         -2.2739592594       -5.4683641395       -1.5185283464
 H         -1.7841717951       -5.1691452249        0.2009670522
 H         -2.5021335098       -2.9741805835       -1.8741931260
 O         -2.1584981634       -0.4720145949       -2.0105751718
