  62
        -98.93502058
 C         -2.4834770726       -1.4746772471        0.2413483318
 C         -2.7574308737       -0.6006448318       -0.8365009986
 C         -3.6926792500        0.5092313473       -0.5641394644
 C         -4.2000698561        0.6694780594        0.6713453780
 C         -5.1839746389        1.6795855126        1.2235097377
 C         -5.4991150583        2.9634472984        0.4599962054
 C         -4.3309782008        3.9414463580        0.3394954329
 H         -4.6457387830        4.7718760330       -0.2962968510
 H         -4.1104008375        4.3460237774        1.3305132373
 C         -3.0345127229        3.3567171390       -0.2164062755
 H         -2.2940897329        4.1607829532       -0.2588692215
 H         -2.6432415335        2.6043268900        0.4725803332
 C         -3.1380588332        2.7468446630       -1.6133288748
 H         -2.1203015518        2.5276025023       -1.9489534320
 H         -3.5653208717        3.4781181109       -2.3022651237
 C         -3.9518333042        1.4440077401       -1.7106721986
 H         -5.0155178763        1.6482075780       -1.8050385106
 H         -3.6360100510        0.9171580224       -2.6158191414
 H         -5.9012761527        2.7306918415       -0.5215643271
 H         -6.2937223184        3.4676721784        1.0165330573
 H         -6.1197005686        1.1307307300        1.3773520334
 H         -4.8115718961        1.9385593307        2.2197288950
 O         -3.8904207703       -0.1882574583        1.6872481390
 C         -3.0388727302       -1.2607787310        1.5050742972
 O         -2.8593802276       -1.9489719795        2.5294980587
 H         -0.1722421640       -0.7820431077       -1.1927991567
 C          0.4257108979       -1.2388473318       -0.4175674762
 C         -0.1277486059       -2.2505836417        0.3560119955
 C          0.6499525199       -2.8254991322        1.3534040058
 C          1.9491288797       -2.3971525315        1.5663992492
 C          2.4976262007       -1.3916425542        0.7905516133
 C          1.7258056629       -0.8065752609       -0.2050153628
 N          2.2730484096        0.2169936999       -1.0022479122
 S          2.9134599783        1.5469171874       -0.1988801561
 O          2.2745149211        1.7495789601        1.0816977616
 O          2.8301370881        2.6418111603       -1.1407710432
 C          4.6238652572        1.1081063967        0.0306121607
 C          5.1799752274        1.1339971241        1.2944290821
 C          6.5146358668        0.7906728147        1.4462166533
 C          7.2649371175        0.4303330039        0.3373944859
 C          6.6918089396        0.4118741365       -0.9256355301
 C          5.3587669398        0.7550121025       -1.0844343948
 H          4.8756144344        0.7557359603       -2.0472101810
 H          7.2783192494        0.1305935133       -1.7853711353
 H          8.3024944306        0.1618261417        0.4583943039
 H          6.9616732530        0.8045951065        2.4272775729
 H          4.5551386127        1.4135957450        2.1277924198
 H          1.6472749954        0.5198826425       -1.7358414795
 H          3.5073109490       -1.0518697231        0.9544017960
 H          2.5411660421       -2.8502786532        2.3468029472
 H          0.2229787154       -3.5985507620        1.9755152670
 C         -1.5562854583       -2.6762407444        0.1338040260
 H         -1.8414045616       -3.3294669110        0.9731634858
 C         -1.7609005146       -3.4703677429       -1.1502916357
 C         -0.7196249859       -3.6173135410       -2.2154852452
 C         -1.0515316204       -4.7798329126       -1.3324997910
 H         -1.5979416767       -5.6125563919       -1.7484898094
 H         -0.3271131238       -5.0560134534       -0.5809903346
 H         -1.0558148287       -3.6285457063       -3.2411725855
 H          0.2314685096       -3.1283557864       -2.0758741102
 H         -2.7896671438       -3.4248327298       -1.4924171687
 O         -2.2611526210       -0.7197707795       -1.9875592463
