  62
        -98.93782044
 C         -2.3183019638       -0.6531134631       -0.3920349884
 C         -3.6493233015       -1.1284844816       -0.2606533804
 C         -4.5626018558       -0.3017603871        0.5382226143
 C         -4.0891224870        0.8057743204        1.1368972763
 C         -4.9162433302        1.7664385145        1.9400784231
 C         -5.4845885663        2.8856214112        1.0560590777
 C         -6.1647172298        2.3831741096       -0.2175660685
 H         -6.5517396215        3.2572601016       -0.7456694040
 H         -5.4141086982        1.9236135106       -0.8647036951
 C         -7.3054944095        1.3845348773        0.0228605099
 H         -7.6398350961        1.4466054071        1.0590526079
 H         -8.1523910939        1.6617965482       -0.6082775449
 C         -6.9581551515       -0.0675281932       -0.3105329200
 H         -6.5367187978       -0.1216804420       -1.3175794402
 H         -7.8850643355       -0.6471217950       -0.3130611003
 C         -5.9891383278       -0.7597099517        0.6562323821
 H         -6.3468977310       -0.6438781799        1.6813722990
 H         -5.9816896681       -1.8263810972        0.4133281709
 H         -6.1970938673        3.4634999387        1.6474744795
 H         -4.6653026549        3.5485475778        0.7682344610
 H         -5.7266495980        1.2234634601        2.4227768561
 H         -4.2795239325        2.2089065784        2.7081314912
 O         -2.7955096683        1.2007804785        1.0380750537
 C         -1.8759975496        0.4932419812        0.2709752355
 O         -0.7362183876        0.9944009813        0.2733044795
 H          1.1482196715       -0.4125106076       -1.4904829742
 C          1.0919383476       -1.1311011899       -0.6876861906
 C         -0.1085984560       -1.7682979455       -0.4228996383
 C         -0.1700104822       -2.6600343210        0.6442555276
 C          0.9449465155       -2.9062816751        1.4218337701
 C          2.1448269320       -2.2709333169        1.1523317646
 C          2.2137641399       -1.3725454137        0.0968718224
 N          3.4286133188       -0.7296705885       -0.2096255896
 S          4.4244095668       -0.2131213381        1.0505797544
 O          5.0791973820       -1.3664414952        1.6175592841
 O          3.6921920427        0.6159506800        1.9821979054
 C          5.6087010288        0.7594066628        0.1410934202
 C          6.6917932159        0.1218927857       -0.4335616461
 C          7.5986373328        0.8712004627       -1.1659556519
 C          7.4080525567        2.2372882046       -1.3113813751
 C          6.3166490156        2.8632645555       -0.7279566736
 C          5.4050059797        2.1193923698        0.0048377682
 H          4.5466179748        2.5654649184        0.4820272138
 H          6.1720170495        3.9257926382       -0.8403772755
 H          8.1154881291        2.8191558479       -1.8808358503
 H          8.4495727477        0.3890342153       -1.6193752586
 H          6.8021609086       -0.9395964439       -0.2859966355
 H          3.2896353488        0.0228335816       -0.8709254665
 H          3.0184243872       -2.4473402774        1.7583923413
 H          0.8827690391       -3.5974071810        2.2493659497
 H         -1.1095145808       -3.1490489486        0.8640931911
 C         -1.3601995923       -1.4957245058       -1.2165769494
 H         -1.8905909026       -2.4530836938       -1.3486748221
 C         -1.0836322320       -0.9622114885       -2.6138920330
 C         -2.1698441552       -0.2912043834       -3.3989495825
 C         -0.9862137932        0.4987691841       -2.9314209571
 H         -0.2598924862        0.8119440576       -3.6675713955
 H         -1.1189562103        1.2019269676       -2.1244372991
 H         -2.2603429432       -0.5140539581       -4.4513003096
 H         -3.1161525429       -0.1350539810       -2.9016414914
 H         -0.4251281046       -1.6232313523       -3.1695076388
 O         -4.0540439497       -2.1990593337       -0.7873330584
