  62
        -98.94543732
 C         -1.7803918788       -1.4409976502        0.2207788690
 C         -1.5588585892       -0.1116272802       -0.2150654912
 C         -2.5765919495        0.8655386096        0.1933411888
 C         -3.6209044194        0.4738600794        0.9452695088
 C         -4.7236918696        1.3595230591        1.4590519387
 C         -5.8524628797        1.6048470187        0.4483641887
 C         -5.4971213399        2.5362846187       -0.7112617014
 H         -6.4322870000        2.7940063185       -1.2125093814
 H         -5.0746651302        3.4607741489       -0.3165606915
 C         -4.5367162098        1.9263574889       -1.7417991513
 H         -4.5165345595        0.8406570589       -1.6221064812
 H         -4.9074176098        2.1296832687       -2.7491165113
 C         -3.1057287099        2.4590774993       -1.6680917714
 H         -3.0987967102        3.5223184293       -1.9180085115
 H         -2.5067859198        1.9324457194       -2.4152114713
 C         -2.4317351598        2.2723807996       -0.3024850814
 H         -1.3632871199        2.4672954499       -0.4165262914
 H         -2.8457392000        2.9750438696        0.4201210286
 H         -6.6894346998        2.0445609786        0.9957915487
 H         -6.1842382094        0.6415530386        0.0539466788
 H         -4.3072025998        2.3148792993        1.7794504286
 H         -5.1465382795        0.8549251991        2.3304667188
 O         -3.7866489490       -0.8120205306        1.3569748489
 C         -2.8794027987       -1.7968725304        1.0030720690
 O         -3.1536898084       -2.9317228404        1.4439115591
 O         -0.5708763093        0.2460827100       -0.9060831712
 C         -0.7846760386       -2.5336896899       -0.1313699409
 C          0.5583428513       -2.1401768695        0.4319084290
 C          0.7025018913       -2.0651413694        1.8150062890
 C          1.8905259012       -1.6441825890        2.3805585590
 C          2.9576224711       -1.2761015788        1.5789137589
 C          2.8207291811       -1.3410739389        0.1995544589
 C          1.6320597612       -1.7844615593       -0.3666399610
 H          1.5434226612       -1.8251780094       -1.4404082910
 N          3.8923786410       -0.9534534787       -0.6261800411
 S          4.6223684406        0.5223346815       -0.3221059312
 O          5.3027699605        0.8622887016       -1.5518091213
 O          5.4562777607        0.4076516318        0.8487223688
 C          3.2936291803        1.6703702112       -0.0132344413
 C          3.0187360302        2.0706337112        1.2781590486
 C          1.9657812100        2.9437905909        1.4971071586
 C          1.2121071299        3.3995234406        0.4270813385
 C          1.5005412000        2.9869755606       -0.8644145614
 C          2.5484021802        2.1104490109       -1.0884226414
 H          2.8043435403        1.7746798509       -2.0803740813
 H          0.9093372499        3.3379404704       -1.6950243915
 H          0.3944994897        4.0817993304        0.6013733085
 H          1.7353218099        3.2649541610        2.5003714485
 H          3.6346568203        1.7020038814        2.0819332987
 H          3.6873221610       -1.0404454189       -1.6113210811
 H          3.8898225510       -0.9376272285        2.0009449189
 H          1.9875006012       -1.5956183089        3.4546481090
 H         -0.1386572986       -2.3339506695        2.4400070990
 H         -1.1264575383       -3.4395182100        0.3877329091
 C         -0.7816738485       -2.7966982401       -1.6222378209
 C         -0.2357360881       -4.0888035700       -2.1494787808
 C         -1.7114593482       -3.8294672504       -2.1811086808
 H         -2.1818581283       -3.6382058106       -3.1340733708
 H         -2.3419297781       -4.3614317205       -1.4835472408
 H          0.3060860918       -4.0802396799       -3.0832169308
 H          0.1386164820       -4.8018013898       -1.4305606008
 H         -0.6293460487       -1.8990459701       -2.2100706110
