  62
        -98.93710242
 C         -2.6328952886       -0.0056060752        0.1752329470
 C         -2.1266827890        0.7975879198       -0.8738593011
 C         -1.7601996065        2.1864299394       -0.5261247812
 C         -1.8766701254        2.6104391982        0.7446229520
 C         -1.6024991361        3.9550392692        1.3871932994
 C         -0.8653353909        5.0505349030        0.6229165271
 C          0.6148160146        4.7636808735        0.3682287270
 H          1.0049719675        5.5368668519       -0.2971921200
 H          1.1493346908        4.8396316464        1.3184032815
 C          0.9349714787        3.3934648349       -0.2251916963
 H          2.0221417555        3.3118275641       -0.3205831449
 H          0.6253158194        2.6009760359        0.4602213492
 C          0.3359428274        3.1120875228       -1.6013871121
 H          0.7407932720        2.1528336807       -1.9372399244
 H          0.6553326879        3.8809975423       -2.3088923191
 C         -1.1970325500        3.0107726738       -1.6483254860
 H         -1.6582212661        3.9954930037       -1.6742966105
 H         -1.4685678212        2.4942205423       -2.5739942820
 H         -1.3805312198        5.2694289674       -0.3076918025
 H         -0.9240644842        5.9530687224        1.2374614559
 H         -2.5824626635        4.3412496990        1.6891905423
 H         -1.0595310773        3.7357766521        2.3122261937
 O         -2.3632028592        1.7959061629        1.7276559596
 C         -2.7262108732        0.4883814915        1.4775247073
 O         -3.1315486464       -0.1292531830        2.4847049923
 H         -0.4307660088       -1.1058048048       -0.7872349396
 C         -0.5411254672       -1.9748503763       -0.1570684992
 C         -1.7889662590       -2.3321907795        0.3296967238
 C         -1.8948707194       -3.4718292479        1.1186671457
 C         -0.7730391713       -4.2193400182        1.4292677648
 C          0.4777943585       -3.8278200827        0.9871814184
 C          0.5920992912       -2.6938547102        0.1912471833
 N          1.8409324503       -2.2469812074       -0.2695485144
 S          2.0755167098       -0.5690428273       -0.3166080276
 O          1.4125027871        0.0535550753        0.8060815635
 O          1.7300508957       -0.0950339113       -1.6317868248
 C          3.8462056299       -0.4856339231       -0.1128298231
 C          4.3740547319       -0.2216132857        1.1365161123
 C          5.7514885081       -0.1913724408        1.2900581829
 C          6.5729220278       -0.4288945080        0.1983112136
 C          6.0285169236       -0.6921914273       -1.0500747728
 C          4.6523986033       -0.7215263293       -1.2107528900
 H          4.1828257439       -0.9107461018       -2.1619939477
 H          6.6700398577       -0.8733336989       -1.8972291758
 H          7.6442013756       -0.4056974980        0.3206616607
 H          6.1768077984        0.0170855982        2.2585111878
 H          3.6948714621       -0.0362907992        1.9533839579
 H          2.6175550921       -2.7230274994        0.1692514724
 H          1.3586937238       -4.3899486891        1.2578017618
 H         -0.8692497196       -5.1009456021        2.0445644945
 H         -2.8607515918       -3.7566276042        1.5083658859
 C         -2.9977858866       -1.4745797050        0.0304952336
 H         -3.7454097906       -1.6774281378        0.8112189708
 C         -3.5947758412       -1.8512336292       -1.3104547069
 C         -4.5197732901       -3.0267922764       -1.3951448271
 C         -5.0573739523       -1.6366939650       -1.5518176553
 H         -5.3717232674       -1.3061315706       -2.5300195136
 H         -5.6394838533       -1.2201084168       -0.7424392061
 H         -4.4658911121       -3.6587689599       -2.2680612399
 H         -4.7475124811       -3.5551823955       -0.4819938514
 H         -2.9235832237       -1.6754175156       -2.1406566326
 O         -1.9867926265        0.4066534508       -2.0636820915
