  62
        -98.94251470
 C          1.9611147735        1.4152628074        0.1517702660
 C          1.6928523635        0.0378585339        0.3391865872
 C          2.8597502569       -0.8081196853        0.6360407318
 C          4.0772311977       -0.2469075929        0.7402212822
 C          5.3542488611       -1.0018528057        0.9656885653
 C          6.0056898132       -1.3992721243       -0.3666808088
 C          5.0451966032       -2.0653791978       -1.3522950647
 H          4.2905489392       -1.3388184689       -1.6626396917
 H          5.6225443827       -2.3257954689       -2.2421264723
 C          4.3470862971       -3.3205639999       -0.8102489519
 H          4.8873450329       -3.6981398602        0.0586927798
 H          4.3811933024       -4.0980471736       -1.5763550867
 C          2.8754514230       -3.1197976454       -0.4438199975
 H          2.3487924622       -2.6589660899       -1.2836112678
 H          2.4299606949       -4.1044934470       -0.2792647921
 C          2.6131603523       -2.2800180077        0.8124913191
 H          1.5527370034       -2.3750587017        1.0635554537
 H          3.2000513664       -2.6717783943        1.6455230896
 H          6.8381734234       -2.0731256813       -0.1561424978
 H          6.4085321875       -0.4992361524       -0.8372828100
 H          6.0414953249       -0.3591333375        1.5184101138
 H          5.1459912371       -1.8899921248        1.5591604400
 O          4.2890731591        1.0873843066        0.6039398893
 C          3.2433154686        1.9475529334        0.3105668637
 O          3.5752517919        3.1467744168        0.2278632751
 H         -1.7356326473        1.7441150705       -0.9413486584
 C         -1.6051395460        1.8277883775        0.1240339985
 C         -0.3652562256        2.1278173677        0.6654606230
 C         -0.2420713999        2.2041761296        2.0510942716
 C         -1.3284763391        1.9714062097        2.8707261026
 C         -2.5630785426        1.6619697288        2.3267117550
 C         -2.7001305478        1.5903833150        0.9457944659
 N         -3.9565291147        1.3291975883        0.3742331571
 S         -4.2017217408        0.2414117684       -0.8697771867
 O         -3.3697459866        0.5776567846       -1.9958492389
 O         -5.6301166958        0.2823018843       -1.0992393657
 C         -3.7665115807       -1.3592587717       -0.2113787782
 C         -4.7846974284       -2.2436002071        0.0912980066
 C         -4.4659975135       -3.4798298983        0.6284086117
 C         -3.1385676119       -3.8081296555        0.8600412015
 C         -2.1310036742       -2.9066092172        0.5558218690
 C         -2.4401901146       -1.6680930391        0.0142074966
 H         -1.6608532910       -0.9599150157       -0.2172369994
 H         -1.0954925560       -3.1481044658        0.7355582441
 H         -2.8875153304       -4.7698603181        1.2793825064
 H         -5.2502973691       -4.1808136026        0.8651699307
 H         -5.8015435464       -1.9460414734       -0.1081730924
 H         -4.7040988950        1.2431586210        1.0477557045
 H         -3.4141242143        1.4809158988        2.9657471436
 H         -1.2151555317        2.0286410564        3.9429552486
 H          0.7244336763        2.4419237770        2.4756125418
 C          0.8540829833        2.3996027985       -0.1822637101
 H          1.2502352300        3.3867791472        0.1099019149
 C          0.5360012734        2.4808995739       -1.6681896745
 C          1.5825425312        2.2125585810       -2.7069915449
 C          0.4400225759        1.2601499376       -2.5307710266
 H         -0.3332532406        1.2240376341       -3.2846527228
 H          0.6330076599        0.3057497073       -2.0669694993
 H          2.5619069202        1.9082495926       -2.3663595052
 H          1.6031672564        2.8390476003       -3.5860766644
 H         -0.1586134290        3.2858234458       -1.8902450588
 O          0.5466656171       -0.4732296144        0.2659474420
