  62
        -98.93904325
 C          2.2134514357        1.1601325691        0.4501067146
 C          2.2858458876        0.2328106484       -0.6141167459
 C          3.0688902740       -0.9967841803       -0.3725777721
 C          3.6428120340       -1.1751250929        0.8319427869
 C          4.5191589082       -2.3111559289        1.2883350207
 C          5.9438442990       -2.2249520856        0.7168179591
 C          6.0222955335       -1.8710353109       -0.7659066726
 H          5.5227016017       -0.9152057636       -0.9333304367
 H          7.0769660444       -1.7347901864       -1.0188058138
 C          5.4459965702       -2.9175909146       -1.7165548027
 H          5.6480138571       -2.5769604609       -2.7351687178
 H          5.9735280837       -3.8629562053       -1.5717162844
 C          3.9428889090       -3.1776506738       -1.5940359597
 H          3.6365949957       -3.7456742045       -2.4774473331
 H          3.7206390528       -3.8046887304       -0.7345558964
 C          3.0778403245       -1.9212096604       -1.5660128875
 H          3.3257907795       -1.2953016397       -2.4308471860
 H          2.0305165891       -2.2142057486       -1.7154288019
 H          6.4435519346       -3.1788460228        0.8931794161
 H          6.4828211202       -1.4531775843        1.2716067691
 H          4.5769458717       -2.2448019212        2.3771365239
 H          4.0574096920       -3.2621517193        1.0394794945
 O          3.5217049706       -0.2620957145        1.8390793471
 C          2.8075042889        0.9100895930        1.6850337748
 O          2.7665583695        1.6308621768        2.7038631462
 H         -0.1251316058        0.6899636798        1.5178074546
 C         -0.6609740533        1.1679726499        0.7055273159
 C         -0.0078663301        2.1268079235       -0.0595989099
 C         -0.7060238917        2.7326369756       -1.0952504545
 C         -2.0146527794        2.3692545959       -1.3641118099
 C         -2.6558281513        1.4062893834       -0.6072219490
 C         -1.9691939350        0.7995508021        0.4365723244
 N         -2.6162964526       -0.1757557061        1.2202225269
 S         -3.2755204713       -1.4959693481        0.4127553393
 O         -3.2997937994       -2.5621924899        1.3912897029
 O         -2.5750984867       -1.7712426267       -0.8203927954
 C         -4.9462893363       -0.9840381898        0.0718542194
 C         -5.4072024488       -0.9534156408       -1.2296303465
 C         -6.7122434042       -0.5508523590       -1.4682894233
 C         -7.5280681686       -0.1891630334       -0.4071691544
 C         -7.0503642777       -0.2282231734        0.8944930069
 C         -5.7472355119       -0.6301360333        1.1400631033
 H         -5.3371523202       -0.6784557083        2.1349996853
 H         -7.6877723359        0.0534782652        1.7170172612
 H         -8.5424318820        0.1250255487       -0.5958340240
 H         -7.0852581712       -0.5198565416       -2.4793938379
 H         -4.7338113630       -1.2379765673       -2.0225418391
 H         -2.0569857202       -0.4951567912        1.9986218380
 H         -3.6722279928        1.1165149222       -0.8179564078
 H         -2.5423268380        2.8424137998       -2.1780794510
 H         -0.2220591419        3.4806756141       -1.7011506436
 C          1.4271598699        2.4480001549        0.2825852570
 H          1.4414650553        2.9418597139        1.2654894075
 C          2.1063745567        3.3495033476       -0.7268070201
 C          1.9674209213        4.8378005247       -0.6233954458
 C          3.2703795824        4.1812644668       -0.2821096274
 H          4.1045768021        4.3034661823       -0.9565213694
 H          3.5567465629        4.1156173408        0.7577625917
 H          1.9101420292        5.4150371379       -1.5337769521
 H          1.3708621492        5.2288769306        0.1867428938
 H          2.1574691780        2.9034420816       -1.7133632552
 O          1.7292957887        0.4179184470       -1.7281108815
