  62
        -98.93141084
 C         -2.2493630237       -0.9428335924       -0.4370753486
 C         -3.4071523413       -0.8864293458        0.3802874085
 C         -4.2776687313        0.2945688194        0.2411996031
 C         -3.9260177733        1.2599589470       -0.6265084356
 C         -4.6366819492        2.5501235532       -0.9477111752
 C         -5.1741529311        3.3524934863        0.2474294064
 C         -6.7004957179        3.3477050482        0.3458277715
 H         -7.0176849036        4.2323195720        0.9025272908
 H         -7.1145262461        3.4309739816       -0.6611723003
 C         -7.3008991101        2.1262648581        1.0393562787
 H         -7.0867713496        2.1769866749        2.1091208436
 H         -8.3858597932        2.1801426713        0.9226769948
 C         -6.8183616755        0.7721331077        0.5149103861
 H         -6.7390469293        0.7887739858       -0.5713904595
 H         -7.5768627108        0.0280208121        0.7672109335
 C         -5.4900335395        0.3094579114        1.1318342339
 H         -5.2643705015        0.9045540254        2.0216826987
 H         -5.5873847992       -0.7233954855        1.4805948258
 H         -4.7339520950        2.9800822331        1.1712849086
 H         -4.8476449136        4.3868087999        0.1280435191
 H         -3.9051644500        3.1468939874       -1.4971695875
 H         -5.4495022532        2.3344484294       -1.6454974632
 O         -2.8046683732        1.1651176190       -1.3941886869
 C         -1.9424264860        0.0846520102       -1.3272652630
 O         -0.9698285283        0.1821926125       -2.1034071388
 O         -3.7091906743       -1.7989836488        1.1955585736
 C         -1.3628153181       -2.1673925469       -0.2823593467
 C         -0.1563230801       -1.8585317087        0.5727114889
 C         -0.0158497295       -2.4222996644        1.8352540804
 C          1.0946073632       -2.1420661040        2.6125298181
 C          2.0834628881       -1.2910627961        2.1522880110
 C          1.9505791532       -0.7202017955        0.8931115083
 C          0.8408229626       -1.0104721542        0.1121051015
 H          0.7355310639       -0.5517756250       -0.8602143526
 N          2.9308701013        0.1815725329        0.4180778400
 S          4.4952180393       -0.4109779191        0.1845816453
 O          4.5508206319       -1.2208190171       -1.0150647492
 O          4.9398089525       -1.0455987012        1.3983128737
 C          5.3817408352        1.1126301000       -0.0678570259
 C          5.7166025711        1.8699548996        1.0379140568
 C          6.3780083197        3.0728364527        0.8501842499
 C          6.6908321186        3.4962180246       -0.4331462394
 C          6.3488294306        2.7245541971       -1.5331176846
 C          5.6857131132        1.5208523919       -1.3517401106
 H          5.4070972328        0.8856887839       -2.1774466068
 H          6.5947700809        3.0549921599       -2.5295395138
 H          7.2060684804        4.4327798848       -0.5771282439
 H          6.6472579101        3.6754532377        1.7026382468
 H          5.4605383664        1.4978866233        2.0160160237
 H          2.6302762660        0.6031415895       -0.4524821451
 H          2.9570279701       -1.0761559919        2.7447795393
 H          1.1899643414       -2.5881923106        3.5909833578
 H         -0.7910308087       -3.0753888539        2.2095272226
 H         -1.9772676343       -2.8974144623        0.2613847477
 C         -0.9480572478       -2.7810061335       -1.6055191165
 C         -0.4653635593       -4.1992599813       -1.6264938755
 C         -1.7964452589       -3.8510523968       -2.2208431951
 H         -1.9040271842       -3.8677350223       -3.2950081012
 H         -2.6865144399       -4.1518572568       -1.6878086533
 H          0.3462276650       -4.4563136487       -2.2899516204
 H         -0.4525361229       -4.7361830603       -0.6899404281
 H         -0.4723580173       -2.0796089552       -2.2785248025
