  62
        -98.93911765
 C         -2.2600411374       -0.0670264661        0.2595078855
 C         -3.2921394031       -0.7251849339       -0.4539927678
 C         -4.4707575168        0.0923750554       -0.7737812547
 C         -4.5059352293        1.3917521815       -0.4309224270
 C         -5.6239813421        2.3570939891       -0.7169529386
 C         -6.7660680533        2.3107550681        0.3075180797
 C         -7.6609367610        1.0731906413        0.2289869643
 H         -8.5380747108        1.2728116247        0.8477474579
 H         -8.0085977350        0.9423077776       -0.7961612215
 C         -6.9960095943       -0.2209071917        0.7185227225
 H         -6.1118403301        0.0252712680        1.3111773763
 H         -7.6830187381       -0.7566724292        1.3774676383
 C         -6.5913440293       -1.1861872629       -0.3956273377
 H         -7.4844497603       -1.5438407381       -0.9127489411
 H         -6.0979031972       -2.0480032291        0.0606324443
 C         -5.6335926827       -0.5864686990       -1.4333287596
 H         -6.1662222777        0.1122421393       -2.0777609464
 H         -5.2390901473       -1.3998510501       -2.0468641538
 H         -7.3876937224        3.1937169304        0.1419102092
 H         -6.3387367944        2.3887774836        1.3099542978
 H         -5.1833588702        3.3561791482       -0.6965463835
 H         -6.0212352575        2.1724628213       -1.7154107942
 O         -3.4797918896        1.9990278025        0.2231472110
 C         -2.3565980773        1.2858115620        0.6022032383
 O         -1.5184429913        1.9612301161        1.2350285956
 O         -3.2583733676       -1.9296509474       -0.8198916371
 C         -0.9839600865       -0.7570166251        0.7134041466
 C          0.0340657362       -0.8615866116       -0.3974607861
 C         -0.2199809976       -1.5912059275       -1.5543619664
 C          0.7476899863       -1.7036458832       -2.5354949321
 C          1.9891758924       -1.1141213913       -2.3747451203
 C          2.2496127048       -0.3768949255       -1.2256963862
 C          1.2689268160       -0.2468042017       -0.2522823289
 H          1.4819529181        0.3401980583        0.6298170231
 N          3.4918142151        0.2495805145       -1.0399052509
 S          4.1150350192        0.3421778897        0.5260822413
 O          3.8703400778       -0.8961968944        1.2302276818
 O          3.6208229568        1.5422105431        1.1538727813
 C          5.8547860464        0.5164235855        0.1751273582
 C          6.6544338031       -0.6110160266        0.1612494908
 C          8.0000853853       -0.4749184446       -0.1415489758
 C          8.5199223387        0.7787768644       -0.4267027528
 C          7.7051248115        1.9011535336       -0.4080590398
 C          6.3588196754        1.7724335021       -0.1052398645
 H          5.6894175605        2.6162360983       -0.0691922430
 H          8.1133220109        2.8746291432       -0.6269291161
 H          9.5674306347        0.8824267242       -0.6616700296
 H          8.6365687812       -1.3449800148       -0.1532000504
 H          6.2083095361       -1.5633615263        0.3989190663
 H          4.1882733169       -0.0441390262       -1.7109209270
 H          2.7489224537       -1.2168934030       -3.1347268608
 H          0.5379346587       -2.2701958736       -3.4302644952
 H         -1.1824160428       -2.0637384097       -1.6751232414
 H         -0.5543859419       -0.1055736936        1.4876223167
 C         -1.2233227663       -2.1262003960        1.3234348530
 C         -0.1386665802       -2.7393484583        2.1551009043
 C         -1.3983869667       -2.2517568660        2.8050180711
 H         -2.1002479003       -2.9809265139        3.1812854254
 H         -1.3508614271       -1.3463798494        3.3933400995
 H          0.0235925568       -3.8040532322        2.0848505407
 H          0.7676212206       -2.1676464443        2.2972316718
 H         -1.8078872050       -2.7819312402        0.6919910437
