  62
        -98.93825696
 C          2.0678005803       -0.9881845191       -0.0701373691
 C          2.4835820548        0.3046063757        0.3229685181
 C          3.8127851515        0.7384888382       -0.1484106844
 C          4.5487981702       -0.0876968778       -0.9145734544
 C          5.9031297941        0.0978955854       -1.5666724929
 C          6.8288431398        1.2341918268       -1.1399461310
 C          7.3740850606        1.1164335672        0.2827470585
 H          8.0663876188        0.2715897532        0.3212724910
 H          7.9423939638        2.0221006408        0.5058724356
 C          6.3279637308        0.9049449465        1.3743034933
 H          5.8268110645       -0.0530537575        1.2216305959
 H          6.8522594622        0.8445204602        2.3319371466
 C          5.2729705125        2.0035076290        1.4910056862
 H          4.7005059058        1.8136649447        2.4029331200
 H          5.7621660339        2.9733944752        1.6003190019
 C          4.2710012206        2.0874729387        0.3258980981
 H          3.3770161353        2.6056076314        0.6853928827
 H          4.6725813996        2.6684729567       -0.5009952986
 H          6.3392293185        2.1932519306       -1.2813452017
 H          7.6826355612        1.2115726544       -1.8227529527
 H          6.4260013652       -0.8553791869       -1.4397795853
 H          5.7042772126        0.1990973246       -2.6394327529
 O          4.0938618875       -1.3212673547       -1.2837010138
 C          2.8614238006       -1.7992361793       -0.8808018538
 O          2.5907017398       -2.9419767523       -1.3010906919
 H         -1.0007860327        0.3096725025        1.4803268725
 C         -1.1483437912        0.1890175492        0.4191460857
 C         -0.3662575012       -0.7068405891       -0.2913581743
 C         -0.5709922705       -0.8287808967       -1.6635187006
 C         -1.5260043349       -0.0653139528       -2.3070199112
 C         -2.2967130875        0.8389546380       -1.5966130415
 C         -2.1000152193        0.9675871725       -0.2286327935
 N         -2.8800213577        1.8820873958        0.4980100797
 S         -4.5285545145        1.9062518583        0.2218337176
 O         -4.8127654646        2.6526327438       -0.9785274165
 O         -5.1109577109        2.4238724107        1.4398865814
 C         -4.9772391937        0.1947387031       -0.0093407010
 C         -5.4585421483       -0.2355880092       -1.2286463525
 C         -5.7584384192       -1.5783826888       -1.3946747354
 C         -5.5687628608       -2.4632206515       -0.3449117289
 C         -5.0880923046       -2.0146157140        0.8759941998
 C         -4.7871384695       -0.6735822216        1.0475604685
 H         -4.4181283537       -0.2910838755        1.9854961265
 H         -4.9435234479       -2.7047053739        1.6917171108
 H         -5.7978824249       -3.5088583777       -0.4773038011
 H         -6.1345526950       -1.9298228020       -2.3419369537
 H         -5.5903190028        0.4853508596       -2.0188671059
 H         -2.6640314983        1.9151975021        1.4830370121
 H         -3.0352105366        1.4552015999       -2.0831573745
 H         -1.6712327592       -0.1703905850       -3.3714547582
 H          0.0399449100       -1.5275077950       -2.2188013146
 C          0.7155280441       -1.5384576794        0.3531899298
 H          0.6602644773       -2.5505472057       -0.0701794362
 C          0.6076715290       -1.6352361823        1.8601444304
 C         -0.4435964966       -2.5128332482        2.4684546425
 C          0.9990758634       -2.9127977493        2.5370211863
 H          1.5069782901       -2.8566806384        3.4882804473
 H          1.3368887016       -3.7256745733        1.9107723936
 H         -0.9280338489       -2.1870177005        3.3763811618
 H         -1.0870716569       -3.0565568798        1.7936988178
 H          0.8593744303       -0.7111153688        2.3662147903
 O          1.7861161732        1.0732042741        1.0354947478
