  62
        -98.93556079
 C          0.8287149552        1.7219085065        0.2591646638
 C          1.7178490814        1.0795960282        1.1546735590
 C          2.9223142820        0.4598350931        0.5695753894
 C          3.0630270458        0.4554316090       -0.7673489655
 C          4.1804831130       -0.1315235237       -1.5870589943
 C          3.8907523458       -1.5934190555       -1.9680313153
 C          4.3907372460       -2.6249927514       -0.9591124532
 H          4.0537251628       -3.6059908261       -1.3008165143
 H          5.4825851747       -2.6349022994       -0.9647409808
 C          3.9033939327       -2.4024270964        0.4738663417
 H          2.8513743887       -2.1153597228        0.4562924839
 H          3.9796351566       -3.3499021433        1.0103615662
 C          4.7070197775       -1.3352464040        1.2299017382
 H          5.5958499143       -1.0710941747        0.6580879998
 H          5.0611636934       -1.7461567002        2.1779915345
 C          3.9133117632       -0.0705668495        1.5715021543
 H          3.3238708383       -0.2455946828        2.4776322871
 H          4.6148954790        0.7357508894        1.8152696752
 H          2.8112436685       -1.6999039191       -2.1009481997
 H          4.3627910521       -1.8022576911       -2.9300649698
 H          4.2293452535        0.4637221683       -2.5013458268
 H          5.1292054571       -0.0423492413       -1.0660624268
 O          2.1224535663        0.9850819797       -1.5983447337
 C          1.0069960345        1.6559404679       -1.1227518405
 O          0.2796317243        2.1228087809       -2.0179257369
 O          1.5209828180        1.0339177848        2.3993239745
 C         -0.3532069706        2.4673728439        0.8496718724
 C         -1.6137884722        2.1992734970        0.0665915629
 C         -2.3439118356        3.1929016579       -0.5723018851
 C         -3.4994807986        2.8771780436       -1.2641892400
 C         -3.9583769630        1.5750872342       -1.3186426102
 C         -3.2338705887        0.5708835407       -0.6854541195
 C         -2.0700835182        0.8880626369       -0.0046548039
 H         -1.5064623125        0.1049185699        0.4831279763
 N         -3.6645632542       -0.7616181791       -0.7475596090
 S         -3.4235190260       -1.8104359120        0.5270332096
 O         -4.4178445579       -2.8449911067        0.3325365129
 O         -3.4604407674       -1.1299729495        1.8002031539
 C         -1.8169169005       -2.5153572156        0.2353522219
 C         -1.5508932236       -3.0394329182       -1.0141395986
 C         -0.3272226089       -3.6491897960       -1.2375128802
 C          0.6009793703       -3.7320912695       -0.2108110353
 C          0.3199427505       -3.1984052223        1.0374268228
 C         -0.9000897783       -2.5818898241        1.2648438069
 H         -1.1538210917       -2.1478244462        2.2196039548
 H          1.0429496594       -3.2582683485        1.8354182323
 H          1.5497195088       -4.2152830136       -0.3827438446
 H         -0.1020420387       -4.0617024282       -2.2079492923
 H         -2.3011567509       -2.9656312886       -1.7836812960
 H         -4.5543640345       -0.9052283394       -1.2014823700
 H         -4.8635011094        1.3303289324       -1.8536031022
 H         -4.0532246239        3.6577902917       -1.7636407279
 H         -1.9970593152        4.2125766714       -0.5500720045
 H         -0.4858695508        2.0281401629        1.8533124182
 C         -0.0880016054        3.9525095225        1.0579221218
 C          1.2971345511        4.4679558568        1.3061591532
 C          0.5970162288        4.7915097067        0.0222851100
 H          0.2510126201        5.8031647921       -0.1313478853
 H          0.9226260251        4.2994428500       -0.8811696645
 H          1.4263535466        5.2535952823        2.0354509280
 H          2.1103854368        3.7574776314        1.2825503503
 H         -0.8825430974        4.4286759499        1.6245604774
