  62
        -98.94504269
 C         -1.0931309540       -1.8700531817       -0.6892728778
 C         -0.3992016516       -2.3816207288        0.4372104624
 C          1.0375834574       -2.6496264074        0.2347778584
 C          1.6023863247       -2.4069856166       -0.9603089510
 C          3.0565691051       -2.5873574418       -1.2840433088
 C          3.8575527005       -1.3031002007       -1.0312331340
 C          3.6348348593       -0.6891065284        0.3510260439
 H          4.3018684555        0.1721713925        0.4367505018
 H          2.6156583855       -0.3038256239        0.4237471713
 C          3.8811560127       -1.6458926610        1.5252806162
 H          4.4504702182       -1.1164082807        2.2921851361
 H          4.4841254913       -2.4948985322        1.1990991828
 C          2.6013201042       -2.1516388918        2.1946521257
 H          1.9460483363       -1.3026943595        2.4077090266
 H          2.8727195865       -2.6046460741        3.1525932093
 C          1.8038619791       -3.1981153573        1.4050343418
 H          2.4698822702       -4.0032366695        1.0846663356
 H          1.0541516901       -3.6205913554        2.0809561835
 H          4.9173830829       -1.5314667289       -1.1593006554
 H          3.5749874444       -0.5611118341       -1.7816157942
 H          3.4576212226       -3.4010409730       -0.6827227630
 H          3.1399309739       -2.8527226408       -2.3395391628
 O          0.9018797087       -1.9336554029       -2.0229352534
 C         -0.4468768801       -1.6400456761       -1.9072046538
 O         -0.9601771345       -1.1898296385       -2.9510713859
 H         -1.2256325967        0.0435793279        1.1488972943
 C         -1.8690840536        0.6427341820        0.5222916605
 C         -2.6509502253        0.0345996997       -0.4502019338
 C         -3.4852860998        0.8279428978       -1.2286133236
 C         -3.5296588184        2.1978560264       -1.0395813070
 C         -2.7213101790        2.8037073308       -0.0946913046
 C         -1.8788519592        2.0204310493        0.6862798125
 N         -1.0263471496        2.6073691809        1.6391309612
 S          0.5978025940        2.1976288215        1.6397954213
 O          0.7649389101        0.8287232643        2.0468135368
 O          1.2197496313        3.1985925139        2.4785128837
 C          1.1255380154        2.4194406120       -0.0484724741
 C          0.9128415345        1.4029322075       -0.9571610632
 C          1.2654523288        1.5978982034       -2.2827990076
 C          1.8298472773        2.8019796482       -2.6745817024
 C          2.0438500473        3.8130770368       -1.7493136614
 C          1.6833662452        3.6256892807       -0.4247361391
 H          1.8346033743        4.3825005522        0.3279276749
 H          2.4862519905        4.7464207654       -2.0582256372
 H          2.1037928948        2.9495600319       -3.7073024439
 H          1.0825559500        0.8060858427       -2.9934190708
 H          0.4742652957        0.4742784200       -0.6271341568
 H         -1.1263703947        3.6097867965        1.7165506940
 H         -2.7368026435        3.8748092959        0.0377649301
 H         -4.1844824450        2.8028696294       -1.6476378330
 H         -4.0872216779        0.3659895383       -1.9969945275
 C         -2.5572690097       -1.4551869377       -0.6729369298
 H         -2.9317425544       -1.6546494845       -1.6905550567
 C         -3.4223638996       -2.2540945406        0.2888918926
 C         -3.9231768458       -1.7069980318        1.5880077744
 C         -4.8744580758       -1.9126480396        0.4497449483
 H         -5.5895244566       -2.7187932556        0.5120386991
 H         -5.2404007053       -1.0331984635       -0.0580838080
 H         -3.6510986167       -0.6971304413        1.8543469134
 H         -3.9597299578       -2.3791081716        2.4316371119
 H         -3.1686568840       -3.3086525352        0.2798145239
 O         -0.9273083418       -2.6225383075        1.5518142729
