  62
        -98.94543320
 C         -1.1434769467       -1.4714530954       -0.3890934753
 C         -2.4020426862       -1.5688329462        0.2591480908
 C         -3.4636027809       -0.6866033810       -0.2342480723
 C         -3.2136881698        0.1398675000       -1.2655170413
 C         -4.1932519675        1.0912512903       -1.8974575945
 C         -4.3052784993        2.4374318021       -1.1690817659
 C         -5.0468991807        2.3910348870        0.1674996808
 H         -5.2465711603        3.4242724158        0.4585300297
 H         -6.0101693981        1.8982734185        0.0304992092
 C         -4.2696906549        1.7026109682        1.2984669802
 H         -4.3316632114        2.3105459151        2.2041929851
 H         -3.2115023055        1.6432540628        1.0301821267
 C         -4.7738413203        0.3041684593        1.6570045495
 H         -4.1276451054       -0.1000015555        2.4404976819
 H         -5.7877278162        0.3733855810        2.0576539343
 C         -4.7773212781       -0.6886457082        0.4872314582
 H         -4.9333277438       -1.6922240480        0.8905492249
 H         -5.5899575660       -0.4566876881       -0.2009537087
 H         -3.2991546883        2.8357942386       -1.0135077943
 H         -4.8361339219        3.1251654055       -1.8318010965
 H         -5.1765713103        0.6233489531       -1.9543973624
 H         -3.8359389161        1.2776272948       -2.9125870815
 O         -2.0057023108        0.1874332896       -1.8812092374
 C         -0.9309967322       -0.5801448097       -1.4424150188
 O          0.1140004556       -0.3721565469       -2.0868281639
 O         -2.6277823766       -2.3689894334        1.2074217517
 C         -0.0360910943       -2.3468488774        0.1662863316
 C          0.7357186135       -1.6444487664        1.2599300499
 C          1.1796314285       -2.3426759609        2.3775388475
 C          1.9141556456       -1.7032036236        3.3594807829
 C          2.2275913162       -0.3608272731        3.2432916152
 C          1.7831986094        0.3477225034        2.1321567284
 C          1.0434602454       -0.2973246823        1.1509434898
 H          0.6946897370        0.2661513258        0.3002731800
 N          2.0708461177        1.7092517836        1.9908479620
 S          2.0636504924        2.4588595969        0.5032619506
 O          2.8431660220        3.6620638534        0.7197723419
 O          0.7081858469        2.6754940867        0.0598845782
 C          2.9407909178        1.3855136102       -0.6196859128
 C          2.5376582092        1.3392897086       -1.9375378782
 C          3.2273496606        0.5259091233       -2.8223087843
 C          4.3022844999       -0.2246603483       -2.3750795341
 C          4.7020370399       -0.1596530686       -1.0490003844
 C          4.0200165082        0.6556183671       -0.1611709250
 H          4.3133315292        0.7204084944        0.8738122178
 H          5.5387943686       -0.7448687801       -0.7030426743
 H          4.8298215701       -0.8655092974       -3.0641275291
 H          2.9082150180        0.4730441606       -3.8505709090
 H          1.6794256408        1.9147592996       -2.2440100847
 H          2.7436954508        2.0971488815        2.6339337216
 H          2.7999827227        0.1404003254        4.0083582696
 H          2.2487617815       -2.2545267017        4.2247294647
 H          0.9330451195       -3.3883198673        2.4807355454
 H         -0.5452207755       -3.2088433257        0.6202864814
 C          0.9408807400       -2.8570311804       -0.8763566486
 C          1.6469699807       -4.1595879911       -0.6545818968
 C          0.5808653650       -4.0536547376       -1.7025125974
 H          0.8677807164       -4.0631406555       -2.7429058065
 H         -0.3729738989       -4.5232207582       -1.5098395975
 H          2.6738753768       -4.2453521035       -0.9736547230
 H          1.4163582695       -4.7134273520        0.2423483281
 H          1.4904559739       -2.0628674855       -1.3656100001
