  62
        -98.94259480
 C          2.3881531698        0.0255644987       -0.0866463208
 C          1.6285186103        0.4633085893        1.0216761493
 C          1.2867720006        1.8964393993        1.0643923789
 C          1.6344957003        2.6779714889        0.0280670985
 C          1.3118162305        4.1326944189       -0.1771216420
 C         -0.0144492197        4.2908776688       -0.9423023916
 C         -1.2561850794        4.3869152493       -0.0585925612
 H         -1.2316471390        5.3248875196        0.5013233284
 H         -2.1231037396        4.4178411692       -0.7229812709
 C         -1.4329098693        3.2217201398        0.9177593293
 H         -2.4864459992        3.1774104900        1.2028514197
 H         -1.2018376396        2.2891934295        0.3997208596
 C         -0.5755852988        3.3583238601        2.1840638690
 H         -0.1807545386        4.3727960800        2.2403637684
 H         -1.2083379785        3.2221918605        3.0636646392
 C          0.5717502311        2.3486869399        2.3095152290
 H          1.3190150314        2.7478100801        3.0047381986
 H          0.1909886111        1.4256307402        2.7580383195
 H          0.0384850202        5.1915876085       -1.5580845520
 H         -0.1227215901        3.4352987585       -1.6151530412
 H          1.2830534609        4.6607524392        0.7716438178
 H          2.1189025004        4.5465274185       -0.7855247124
 O          2.3169439999        2.2030582183       -1.0515569016
 C          2.6943083396        0.8787538882       -1.1446097012
 O          3.2933311392        0.5822193677       -2.2015536613
 O          1.2436441505       -0.3086097703        1.9398290398
 C          2.7470353495       -1.4472028914       -0.2273542203
 C          1.4444798594       -2.2054380712       -0.3041691096
 C          1.0574210995       -3.2038153108        0.5789575410
 C         -0.2231109106       -3.7300785806        0.5260995316
 C         -1.1484405808       -3.2529155708       -0.3851291883
 C         -0.7565529510       -2.2788887112       -1.2931692388
 C          0.5365911091       -1.7904690114       -1.2716776194
 H          0.8283343590       -1.0183700418       -1.9734931698
 N         -1.7371578412       -1.7039838714       -2.1594070987
 S         -2.1956276107       -0.1901859911       -1.5563014291
 O         -3.1946722009        0.3126763287       -2.4758976389
 O         -1.0510940505        0.6731614888       -1.3574690798
 C         -2.9425692703       -0.6268571703       -0.0056379187
 C         -4.2783602803       -0.9790380101        0.0019676719
 C         -4.8601466400       -1.3738372495        1.1955653223
 C         -4.0976076896       -1.4151377492        2.3535581820
 C         -2.7577264495       -1.0605530095        2.3274512614
 C         -2.1688539599       -0.6630654100        1.1371907711
 H         -1.1258702498       -0.3904237902        1.0886560306
 H         -2.1570108292       -1.0956037192        3.2221427312
 H         -4.5486781893       -1.7261808888        3.2826902723
 H         -5.9018715400       -1.6505791194        1.2189525128
 H         -4.8278410306       -0.9284178504       -0.9236205279
 H         -1.3924838015       -1.5673657718       -3.1011522188
 H         -2.1638658509       -3.6137139606       -0.4006010678
 H         -0.5130969905       -4.4971696203        1.2271574120
 H          1.7504967997       -3.5503066406        1.3277891108
 H          3.2702345992       -1.5440842019       -1.1893870005
 C          3.6632948398       -1.9018368011        0.8865300395
 C          4.5419680496       -3.0995125714        0.6887898697
 C          5.1426200598       -1.7272418815        0.7285268190
 H          5.7223343902       -1.4406734412        1.5929294687
 H          5.4960522896       -1.2935379719       -0.1959368313
 H          4.7144463297       -3.7570779011        1.5270575999
 H          4.4931971291       -3.6029129917       -0.2649573201
 H          3.2426586202       -1.7296714107        1.8698502396
