  62
        -98.93525067
 C         -1.7924954218        0.8880524723       -0.7384666136
 C         -2.0623994905       -0.5018953198       -0.8330709608
 C         -3.4597173201       -0.9287881708       -0.6509311754
 C         -4.3982908039        0.0056708471       -0.4227585791
 C         -5.8659822696       -0.2048469747       -0.1719400383
 C         -6.1549298618       -0.2884213208        1.3363409566
 C         -6.0205605958       -1.6855354536        1.9406740024
 H         -6.1219891783       -1.5822417350        3.0235106909
 H         -6.8476209818       -2.3078529651        1.5924124244
 C         -4.7042228347       -2.4055043726        1.6361916322
 H         -3.8711596241       -1.7072162959        1.7367430966
 H         -4.5661815461       -3.1829868661        2.3900886723
 C         -4.6784626731       -3.0531280431        0.2435558435
 H         -5.6878341395       -3.0550499964       -0.1674030002
 H         -4.3809132062       -4.0995777734        0.3372482480
 C         -3.7128229977       -2.4077470622       -0.7608542960
 H         -4.0561926275       -2.6279519563       -1.7772472390
 H         -2.7236085506       -2.8650798052       -0.6607807670
 H         -7.1728680356        0.0623952557        1.5181043779
 H         -5.4762883677        0.4004940062        1.8459469654
 H         -6.3780751624        0.6711672945       -0.5755990594
 H         -6.2234287142       -1.0891429754       -0.6910224707
 O         -4.0999933847        1.3293287148       -0.3380535125
 C         -2.8074124697        1.8077062861       -0.4749836916
 O         -2.7236310698        3.0449455398       -0.3408236210
 O         -1.1646821849       -1.3562068823       -1.0642945182
 C         -0.3478914179        1.3068361257       -0.9389922335
 C          0.3911585165        1.4946959098        0.3645901779
 C         -0.0613655205        2.3696260921        1.3460590474
 C          0.6646495514        2.5470408694        2.5096347226
 C          1.8630600746        1.8823562524        2.7041044000
 C          2.3267072293        1.0106914109        1.7264141646
 C          1.5785796099        0.8095899714        0.5752211906
 H          1.9327347741        0.1141611609       -0.1699449378
 N          3.5365778767        0.3209928849        1.8846829658
 S          4.5528029857        0.1158245810        0.5684035771
 O          5.8633141807       -0.0780202662        1.1509764790
 O          4.4277681747        1.2034822851       -0.3727806719
 C          4.0205077479       -1.4117159179       -0.1733334334
 C          3.9655293468       -2.5407603431        0.6195158528
 C          3.5673783462       -3.7390790557        0.0497871694
 C          3.2349425456       -3.7886130812       -1.2956114278
 C          3.2996886950       -2.6473110481       -2.0794801749
 C          3.6975112019       -1.4458217440       -1.5151292467
 H          3.7580418666       -0.5337654165       -2.0886925337
 H          3.0383757831       -2.6868626850       -3.1249163391
 H          2.9219903820       -4.7215714853       -1.7371416793
 H          3.5149557368       -4.6298983766        0.6548351173
 H          4.2353084508       -2.4634184963        1.6595545013
 H          4.0496518346        0.5475775013        2.7241144236
 H          2.4361725162        2.0373224914        3.6057825228
 H          0.3013246593        3.2240460869        3.2682874323
 H         -0.9820965296        2.9094120183        1.1861072182
 H          0.1242368877        0.4626655596       -1.4600992809
 C         -0.1775094571        2.5494551951       -1.7944082435
 C          1.1832770395        2.8710882413       -2.3339373784
 C          0.1003089372        2.4046034581       -3.2589512814
 H         -0.3389321700        3.1183558415       -3.9397572533
 H          0.1667301056        1.4032714143       -3.6588373625
 H          1.4844726118        3.9067830850       -2.3775573862
 H          1.9934037060        2.1964899445       -2.0972014028
 H         -0.8010597154        3.3759484932       -1.4796358034
