  62
        -98.93789601
 C         -2.6191067347       -1.0014367179        0.5022148000
 C         -2.8998067360        0.1851397250        1.2303241659
 C         -4.1998737270        0.8138100015        0.9796195963
 C         -5.0545136172        0.2465131834        0.1093747268
 C         -6.4374338711        0.7362989143       -0.2246915231
 C         -6.4723394973        1.8352897046       -1.2951673621
 C         -5.9737615365        3.2055747894       -0.8349288745
 H         -6.2551092908        3.9247854995       -1.6066933993
 H         -6.4928805668        3.4909558745        0.0805780783
 C         -4.4564447082        3.2852257319       -0.6156179258
 H         -3.9712075382        2.4407366051       -1.1108806664
 H         -4.0682013558        4.1935793514       -1.0819265244
 C         -4.0274452993        3.3107390047        0.8515592681
 H         -2.9351969216        3.3295538869        0.8875523145
 H         -4.3962963417        4.2233804424        1.3250040403
 C         -4.5079472504        2.1068051442        1.6724294816
 H         -5.5771032010        2.1876628331        1.8679503481
 H         -3.9754643472        2.1075425457        2.6266075648
 H         -5.8861484184        1.5039935489       -2.1554853670
 H         -7.5099406457        1.9399826614       -1.6206165041
 H         -6.9269460861        1.0942127581        0.6815983809
 H         -6.9896168344       -0.1277948044       -0.6005029335
 O         -4.7525497852       -0.8901245223       -0.5682272509
 C         -3.5297267184       -1.5300538634       -0.4133830003
 O         -3.4086008663       -2.5380013463       -1.1368913619
 O         -2.1008640648        0.6862043196        2.0666428143
 C         -1.2792670202       -1.6615958190        0.7786283442
 C         -0.2444056964       -1.2848452542       -0.2557839343
 C         -0.3867091852       -1.6458076183       -1.5913397250
 C          0.5837492657       -1.3028085494       -2.5152229271
 C          1.7120345957       -0.5998683862       -2.1308092094
 C          1.8659247262       -0.2375993727       -0.7995944973
 C          0.8901215249       -0.5843288345        0.1274441060
 H          1.0059467470       -0.2894220801        1.1618017974
 N          3.0020105462        0.4891907674       -0.4031486944
 S          4.4882417952        0.0215331629       -1.0587242979
 O          4.6361549937        0.6520704825       -2.3466559817
 O          4.6033539255       -1.4191890914       -1.0441593868
 C          5.6251186494        0.7479342816        0.1052716648
 C          6.1223011466       -0.0289572533        1.1345800960
 C          6.9914110725        0.5458082109        2.0484745717
 C          7.3442540860        1.8808027065        1.9197238611
 C          6.8368481537        2.6476056452        0.8812154950
 C          5.9682739508        2.0790810699       -0.0368301458
 H          5.5573092861        2.6332202353       -0.8644832254
 H          7.1160414731        3.6842634240        0.7833986408
 H          8.0215686086        2.3254074120        2.6316894447
 H          7.3900229249       -0.0485231110        2.8548658230
 H          5.8289914141       -1.0651539482        1.1898133285
 H          3.0569084726        0.6001601925        0.6000006864
 H          2.4774506618       -0.3340480521       -2.8423804382
 H          0.4616758262       -1.5878684419       -3.5497347354
 H         -1.2675918298       -2.1882781335       -1.8987179989
 H         -0.9532369346       -1.2421878641        1.7403101275
 C         -1.3638879835       -3.1687608246        0.9218132657
 C         -0.2885795580       -3.8854873137        1.6797388468
 C         -1.6633289519       -3.7623771159        2.2640087098
 H         -2.2879148121       -4.6417269445        2.3091480061
 H         -1.8075088971       -3.0819827218        3.0907226351
 H          0.0361630309       -4.8507858030        1.3230815360
 H          0.5012668589       -3.2892737329        2.1112475365
 H         -1.7843066442       -3.6616687581        0.0554143699
