  62
        -98.93656999
 C          2.5114307103        1.2702201340        0.2012701014
 C          2.6469880600        0.3737462607       -0.8857708814
 C          3.5101068796       -0.7929865068       -0.6492910718
 C          4.1185161315       -0.9432049939        0.5409503869
 C          5.0707142710       -2.0421912204        0.9328833851
 C          4.4784417260       -3.4632419862        1.0023668954
 C          4.6469404247       -4.2822486875       -0.2834273518
 H          5.5003394832       -3.8914454948       -0.8387506938
 H          4.8933541801       -5.3111780862       -0.0135798562
 C          3.4229636069       -4.3426356523       -1.2023208379
 H          3.7502727540       -4.7307078185       -2.1691770138
 H          2.7024285263       -5.0527262623       -0.7900272347
 C          2.6873030826       -3.0206350638       -1.4236631134
 H          2.0960547620       -2.7756795004       -0.5376675575
 H          1.9745376238       -3.1587552739       -2.2389192584
 C          3.6009334843       -1.8204026007       -1.7397172580
 H          4.6309565698       -2.1456176600       -1.8773139662
 H          3.2668469279       -1.3304145529       -2.6563476264
 H          4.9992679132       -3.9832382534        1.8079916868
 H          3.4270031748       -3.4058396043        1.2835256905
 H          5.9162650755       -2.0357712493        0.2414580209
 H          5.4449436068       -1.7637107602        1.9202117594
 O          3.9605217390       -0.0537140741        1.5608723502
 C          3.1428179452        1.0563483331        1.4250425689
 O          3.0590326907        1.7633459447        2.4512307175
 H          0.2434292689        0.4745281608        1.1117933783
 C         -0.3478179143        1.0042425566        0.3734187268
 C          0.2151451701        2.0874660295       -0.2901041935
 C         -0.5626117003        2.7688433016       -1.2170900561
 C         -1.8572755561        2.3575640286       -1.4838395406
 C         -2.4036557863        1.2640451603       -0.8383263361
 C         -1.6401238566        0.5832515887        0.1010874939
 N         -2.1807439822       -0.5382698116        0.7554686173
 S         -3.6783379623       -0.3749060464        1.4985382791
 O         -3.9055624532        0.9825536049        1.9376457428
 O         -3.7027824093       -1.3952801824        2.5241052213
 C         -4.8393618003       -0.8074271824        0.2203610818
 C         -5.8569889561        0.0656353531       -0.1106218720
 C         -6.7537724220       -0.2970361438       -1.1036865259
 C         -6.6178187430       -1.5194780387       -1.7434856426
 C         -5.5914166858       -2.3858866965       -1.3973873974
 C         -4.6923544340       -2.0301192607       -0.4048412617
 H         -3.8825317725       -2.6742357083       -0.1049316091
 H         -5.4882641010       -3.3352778174       -1.8977623794
 H         -7.3154799930       -1.7990295801       -2.5170542058
 H         -7.5522240578        0.3749220324       -1.3744347108
 H         -5.9190109445        1.0079225790        0.4099382975
 H         -1.5295652375       -0.9970643624        1.3759087125
 H         -3.4075826495        0.9349737740       -1.0510733528
 H         -2.4477238199        2.8938333871       -2.2108575734
 H         -0.1536174504        3.6211918961       -1.7341241347
 C          1.6265798885        2.4945449446        0.0616276364
 H          1.6034013985        2.9693602836        1.0542910358
 C          2.2372375676        3.4655898870       -0.9282971260
 C          2.0381352330        4.9416150175       -0.7651194662
 C          3.3757740442        4.3297889339       -0.4795104479
 H          4.1872089652        4.5134106700       -1.1675361963
 H          3.6897128176        4.2380884085        0.5505255528
 H          1.4467975966        5.2776149832        0.0733939434
 H          1.9345364106        5.5494243001       -1.6513409061
 H          2.2819538357        3.0597248005       -1.9322495905
 O          2.0813285407        0.5377051858       -1.9969863117
