  62
        -98.93983810
 C         -2.7180815171       -0.1790088073        0.1873863397
 C         -2.4429848160       -0.9963083282       -0.9397619530
 C         -1.9626970288       -2.3534520426       -0.6681143328
 C         -1.8100804790       -2.7580936873        0.6055786291
 C         -1.3815612792       -4.1279996264        1.0588410399
 C          0.1386502389       -4.3323688384        1.0850818050
 C          0.7921200308       -4.4745394799       -0.2896010139
 H          1.8058492836       -4.8462542839       -0.1282150374
 H          0.2564544579       -5.2247674523       -0.8726214493
 C          0.8698877479       -3.1618817517       -1.0802101427
 H          0.7328281495       -2.3135171161       -0.4046952921
 H          1.8675216224       -3.0484476165       -1.5116952396
 C         -0.1277396671       -3.0407956940       -2.2324451289
 H         -0.0117980643       -2.0419885361       -2.6623887879
 H          0.1136449474       -3.7747230631       -3.0055830122
 C         -1.5973281933       -3.2235444431       -1.8321261711
 H         -2.2216353738       -2.9241959595       -2.6779772843
 H         -1.7961117561       -4.2706175664       -1.6016181901
 H          0.5943459090       -3.4921982116        1.6152038793
 H          0.3371555106       -5.2410043546        1.6585793132
 H         -1.7637217623       -4.2499282671        2.0747759027
 H         -1.8410439327       -4.8833184335        0.4200703711
 O         -2.0754664934       -1.9473104748        1.6604418403
 C         -2.4830229227       -0.6267989198        1.4881282236
 O         -2.6151092721       -0.0119956429        2.5620020643
 O         -2.6165313142       -0.6038534304       -2.1265065188
 C         -3.1592578627        1.2414428782       -0.1248819743
 C         -1.9730533069        2.0474676341       -0.5963950938
 C         -2.0946903464        2.9962386190       -1.6052327799
 C         -0.9909717160        3.7129495876       -2.0324137794
 C          0.2588907736        3.4694062006       -1.4915987639
 C          0.3931402148        2.5119723119       -0.4940106179
 C         -0.7239793227        1.8321280082       -0.0345645266
 H         -0.6066444562        1.0969133645        0.7474710298
 N          1.6523289309        2.1890946376        0.0581950606
 S          2.0172555957        0.5320445154       -0.0344225556
 O          1.7583664983        0.0662808135       -1.3778881842
 O          1.3513848547       -0.1659144237        1.0355184342
 C          3.7724868402        0.5678389055        0.2787468733
 C          4.6597874328        0.3901238535       -0.7652475712
 C          6.0202697053        0.4524832721       -0.5058270530
 C          6.4663899878        0.6949299987        0.7844530120
 C          5.5628641765        0.8713136317        1.8223048278
 C          4.2017228376        0.8077588645        1.5703468091
 H          3.4617053917        0.9293104885        2.3443785281
 H          5.9131343914        1.0574992216        2.8246987546
 H          7.5251212532        0.7445588902        0.9838151998
 H          6.7248409986        0.3126222748       -1.3096848664
 H          4.2645682816        0.1995587565       -1.7501255703
 H          2.3962964109        2.7145235295       -0.3857220050
 H          1.1262304819        4.0049207781       -1.8478092816
 H         -1.0992645012        4.4501829959       -2.8134275118
 H         -3.0558198327        3.1527424202       -2.0726066436
 H         -3.8480509969        1.1539212791       -0.9822601091
 C         -3.9162686469        1.9241915031        1.0030471504
 C         -3.2791430334        2.9270205661        1.9126507107
 C         -4.2982571772        3.3719457427        0.9097836417
 H         -5.2750994166        3.6649902300        1.2631551312
 H         -3.9463868511        3.9343821755        0.0590904510
 H         -3.5444394118        2.8947684488        2.9578418454
 H         -2.2437152531        3.1765727829        1.7368544209
 H         -4.6424084724        1.2595738970        1.4584291027
