  62
        -98.94007583
 C         -2.0131601889       -0.3017351433       -0.5586242538
 C         -1.2486375257       -1.2176058399       -1.3203412245
 C         -0.8562049015       -2.4747637423       -0.6605278900
 C         -1.2168558497       -2.6768354888        0.6180098102
 C         -0.8894899365       -3.8582976383        1.4894808608
 C          0.3811078062       -3.5894838301        2.3144728926
 C          1.6828223453       -3.9929915801        1.6251926783
 H          2.5043947147       -3.6586655067        2.2630788782
 H          1.7365696266       -5.0819641531        1.5562214609
 C          1.8691231605       -3.3895155122        0.2311772065
 H          2.9371867566       -3.3834964310        0.0033662030
 H          1.5416656228       -2.3486363937        0.2603782964
 C          1.1267444524       -4.1635488057       -0.8690483068
 H          1.8229785778       -4.3925060721       -1.6785178898
 H          0.7969229565       -5.1208064396       -0.4652469655
 C         -0.0676717672       -3.4377539096       -1.5066151721
 H          0.2799242928       -2.8392585125       -2.3548503509
 H         -0.7571621329       -4.1839376226       -1.9163495665
 H          0.3102609614       -4.1307383841        3.2604983705
 H          0.4148936205       -2.5206984299        2.5457409084
 H         -1.7310916334       -3.9803792224        2.1748177931
 H         -0.7881944484       -4.7614814509        0.8942305557
 O         -1.9274526828       -1.7605880218        1.3270071127
 C         -2.2959362835       -0.5390858615        0.7883536230
 O         -2.8733685188        0.2108756268        1.5977446210
 H          0.1669165500        1.2512707152       -0.4671518348
 C         -0.4188484700        2.0172110046        0.0158704533
 C         -1.7735477699        2.1109737992       -0.2779946715
 C         -2.5179265124        3.1106434961        0.3300134273
 C         -1.9166942105        3.9621860401        1.2424353481
 C         -0.5866116188        3.8132679336        1.5899778623
 C          0.1687577545        2.8188204905        0.9764063006
 N          1.5158777150        2.6101279518        1.3041864838
 S          2.1861263764        1.0736240190        1.2222839858
 O          1.2114573156        0.0289747261        1.4272780064
 O          3.2808289392        1.1173966166        2.1702418505
 C          2.8688956746        1.0183829302       -0.4221806942
 C          2.3729792654        0.1498114004       -1.3723638342
 C          2.9280382007        0.1536245140       -2.6426256025
 C          3.9672892629        1.0207855828       -2.9397546243
 C          4.4600471886        1.8849585970       -1.9728682554
 C          3.9073557183        1.8858738617       -0.7030871274
 H          4.2649102584        2.5337732254        0.0796449735
 H          5.2697989977        2.5572687141       -2.2063006419
 H          4.3943443051        1.0212395877       -3.9301818289
 H          2.5331534227       -0.5167438459       -3.3893826625
 H          1.5576246340       -0.5111975713       -1.1212389049
 H          1.8460894735        3.1252266850        2.1066449929
 H         -0.1376563282        4.4485987219        2.3383801562
 H         -2.5037857389        4.7340376493        1.7170956448
 H         -3.5711029741        3.2014362497        0.1201180519
 C         -2.3306904932        1.0467942133       -1.1889749085
 H         -1.7404135454        1.0519281483       -2.1209620821
 C         -3.7774243842        1.2643908647       -1.5961370848
 C         -4.6551141916        0.1040808769       -1.9570600219
 C         -4.9382991395        0.9020649996       -0.7213893738
 H         -5.7990467047        1.5551691203       -0.7231010953
 H         -4.7245849386        0.4633903187        0.2398278863
 H         -4.2414691150       -0.8871716017       -1.8379881076
 H         -5.3208223007        0.2032502922       -2.8012703403
 H         -3.8914713064        2.1580020610       -2.2026303294
 O         -0.8893375211       -0.9872958146       -2.5080815736
