  62
        -98.94295613
 C          2.4970259558        0.8549425607        0.4819754084
 C          2.5662046859       -0.3396370386       -0.2744599216
 C          3.7294707119       -1.1942300906       -0.0045475820
 C          4.6249108155       -0.8315706827        0.9318902045
 C          5.8480517525       -1.6092502525        1.3361773635
 C          7.0657855562       -1.3721858025        0.4324729656
 C          6.9807148710       -2.0108510121       -0.9543520117
 H          7.9779620261       -1.9529954025       -1.3950592222
 H          6.7312043193       -3.0673687776       -0.8517510790
 C          5.9819936840       -1.3336927285       -1.9033328372
 H          5.7322423730       -0.3410149778       -1.5215903948
 H          6.4476310786       -1.1920746165       -2.8813287093
 C          4.6884307909       -2.1172577504       -2.1265911055
 H          4.0413091371       -1.5302095818       -2.7832400693
 H          4.9133659213       -3.0597785818       -2.6306490642
 C          3.9063803211       -2.4242570494       -0.8426845205
 H          4.4098820254       -3.2049926172       -0.2730722874
 H          2.9116624910       -2.7795091971       -1.1227489676
 H          7.2199291219       -0.2955721022        0.3292476142
 H          7.9374256960       -1.7845663581        0.9459685064
 H          5.6138474475       -2.6738159495        1.3613882182
 H          6.1020395107       -1.2846757746        2.3475593072
 O          4.5051960793        0.3129022122        1.6572059812
 C          3.4539713410        1.1885853350        1.4399154008
 O          3.4767545312        2.2091504836        2.1582033318
 O          1.7059484880       -0.6765797652       -1.1285159708
 C          1.3488528052        1.8232585302        0.2622110557
 C          0.0323949563        1.1323366076        0.5239467588
 C         -0.1420531563        0.4610808507        1.7317255297
 C         -1.3318755415       -0.1778724889        2.0203428075
 C         -2.3770048291       -0.1627605960        1.1125138479
 C         -2.2196493390        0.5139064003       -0.0880547527
 C         -1.0225156809        1.1607465777       -0.3733153487
 H         -0.9178508948        1.6809290726       -1.3126806545
 N         -3.2709066350        0.5294433071       -1.0174746607
 S         -4.8280734105        0.8598421111       -0.4938403067
 O         -5.5136956380        1.3753462808       -1.6588636381
 O         -4.8248362693        1.7066759295        0.6763103474
 C         -5.4987060421       -0.7394676712       -0.0906086178
 C         -5.4682533544       -1.7224355586       -1.0602655662
 C         -5.9996522416       -2.9680454843       -0.7671125448
 C         -6.5525756866       -3.2075971655        0.4821796287
 C         -6.5782955718       -2.2093893623        1.4439076057
 C         -6.0471447917       -0.9614055164        1.1572405017
 H         -6.0415991366       -0.1568925277        1.8755271144
 H         -7.0088615157       -2.3974499713        2.4143782212
 H         -6.9660343534       -4.1780519055        0.7072775032
 H         -5.9808973693       -3.7471175665       -1.5121575941
 H         -5.0331207461       -1.4962815543       -2.0194484029
 H         -3.0580327319        1.0177320253       -1.8748588103
 H         -3.3063462365       -0.6633626409        1.3295267941
 H         -1.4481116428       -0.6964873911        2.9600404291
 H          0.6746225552        0.4469836197        2.4412609775
 H          1.4694363430        2.6148972961        1.0163213031
 C          1.4530427492        2.4444927881       -1.1151655501
 C          0.8736190915        3.8013723217       -1.3776306939
 C          2.3598529424        3.6204781589       -1.3111502517
 H          2.9295918543        3.6864723933       -2.2259314757
 H          2.8841942358        3.9920548860       -0.4426397553
 H          0.4254948628        3.9957918482       -2.3407790115
 H          0.3862895958        4.3048210963       -0.5560796797
 H          1.4138330488        1.7070771686       -1.9089856677
