  62
        -98.93821473
 C          1.7961381444        0.8641596081        0.2483628754
 C          2.3156812412       -0.4193425492       -0.0319140139
 C          3.7653381404       -0.6102938981        0.1830258769
 C          4.4961222936        0.4245458919        0.6380240112
 C          5.9794279710        0.4778460785        0.8905187512
 C          6.7967805008        0.5930019091       -0.4065276388
 C          6.3374525728       -0.3207948552       -1.5397052276
 H          5.2900244659       -0.1130703383       -1.7662000076
 H          6.9182178911       -0.0640678942       -2.4296668838
 C          6.5140562129       -1.8154370873       -1.2827409471
 H          6.2269512961       -2.3380907005       -2.1988568663
 H          7.5701739310       -2.0251365709       -1.0986483405
 C          5.6952005967       -2.3973524701       -0.1285912607
 H          6.1413603319       -2.1521001130        0.8314275472
 H          5.7342040271       -3.4869399772       -0.2192319862
 C          4.2184366847       -2.0142870423       -0.1374119262
 H          3.7925373992       -2.2509513904       -1.1193341897
 H          3.6851638681       -2.6628782565        0.5685346321
 H          6.7229166788        1.6238690928       -0.7612426284
 H          7.8435597893        0.3904825198       -0.1739769855
 H          6.1624679120        1.3681077893        1.4962068720
 H          6.2905367526       -0.3862988403        1.4698694280
 O          3.9458996852        1.6440091624        0.9049030821
 C          2.6017150943        1.8985875778        0.7216251447
 O          2.2470728170        3.0582528066        1.0157123812
 H         -1.7785398536       -0.4865950118       -0.7556608606
 C         -1.5437887480       -0.5582475990        0.2928920518
 C         -0.5139236240        0.1888139484        0.8415873837
 C         -0.2385027513        0.0503982816        2.2005774850
 C         -0.9575749041       -0.8314857859        2.9820061429
 C         -1.9770833749       -1.5865778184        2.4284061276
 C         -2.2661918675       -1.4500140642        1.0766635942
 N         -3.2887552554       -2.2082663730        0.4924405383
 S         -4.2151124376       -1.5979434554       -0.7491101289
 O         -5.4325411813       -2.3803113723       -0.7040757951
 O         -3.4940938132       -1.6378231808       -1.9962470572
 C         -4.5692736777        0.0949065726       -0.3060440411
 C         -4.9899990338        0.3791851961        0.9782598774
 C         -5.2744374585        1.6925369938        1.3148075011
 C         -5.1406110585        2.6948321952        0.3660843655
 C         -4.7268612580        2.3924378068       -0.9215186846
 C         -4.4372650587        1.0806096136       -1.2617663948
 H         -4.1062011113        0.8020093231       -2.2489473231
 H         -4.6252411335        3.1712590865       -1.6603996149
 H         -5.3608616070        3.7168766354        0.6313232888
 H         -5.5980808535        1.9307374257        2.3152056670
 H         -5.0925929675       -0.4179036410        1.6960827351
 H         -3.8221326543       -2.7824368626        1.1274771469
 H         -2.5344735897       -2.2848133496        3.0340057032
 H         -0.7254294448       -0.9330471174        4.0314354436
 H          0.5606004753        0.6387964918        2.6312010554
 C          0.3205278918        1.1519012571        0.0343822748
 H          0.1502192914        2.1648798279        0.4276111277
 C          0.0054650400        1.1461790080       -1.4463609340
 C         -1.1065247248        1.9918390428       -1.9863375050
 C          0.3189325396        2.3692008255       -2.2531405072
 H          0.7101265937        2.2430576182       -3.2516077488
 H          0.7337822496        3.2157973281       -1.7253202197
 H         -1.6677049507        2.5880841429       -1.2830186171
 H         -1.6928590454        1.6020674932       -2.8046168249
 H          0.1861743562        0.1822826155       -1.9092454749
 O          1.6092331359       -1.3746054491       -0.4500369410
