  62
        -98.94485966
 C         -1.9028434017       -1.0492021668       -0.2332035401
 C         -3.0360172292       -1.1663501361        0.6158539747
 C         -4.2808082816       -0.5646547296        0.1293541829
 C         -4.3015066623        0.0407997235       -1.0715350367
 C         -5.4975042527        0.6817194210       -1.7213027357
 C         -5.7607274253        2.1222564342       -1.2615978901
 C         -6.3155756325        2.2616527206        0.1566513432
 H         -6.6584446801        3.2924605042        0.2662192186
 H         -7.1866681205        1.6155643387        0.2700363199
 C         -5.2994985488        1.9595777960        1.2671352992
 H         -5.3559103399        2.7362542852        2.0332137198
 H         -4.2880186639        1.9920367796        0.8550446626
 C         -5.5056005671        0.6165896988        1.9679248453
 H         -4.7089602540        0.4902660864        2.7054750505
 H         -6.4594715554        0.6236517643        2.4999845476
 C         -5.4791202959       -0.5963889384        1.0289496103
 H         -5.4133307403       -1.5006654256        1.6388535853
 H         -6.3955611627       -0.6368262468        0.4405762988
 H         -6.4828087025        2.5587019452       -1.9556228160
 H         -4.8322500693        2.6918281145       -1.3470568842
 H         -5.2990790484        0.6939890739       -2.7952249026
 H         -6.3835502057        0.0729570846       -1.5387431257
 O         -3.2015272853        0.1207756736       -1.8631989730
 C         -1.9770883962       -0.3981797127       -1.4643929535
 O         -1.0698178196       -0.2135313266       -2.3013251572
 H          0.7659449244        0.2342224735       -1.0924849763
 C          0.9627257766        0.2810378731       -0.0319303295
 C          0.3191722533       -0.6062026714        0.8196107863
 C          0.5623408031       -0.5114303861        2.1849237393
 C          1.4279947998        0.4465446079        2.6841717643
 C          2.0693802244        1.3273092374        1.8321564425
 C          1.8254940881        1.2452372210        0.4672635598
 N          2.4867365244        2.1313122432       -0.4096573247
 S          4.1616646029        2.0554278109       -0.3651282776
 O          4.6367659712        2.7654946410        0.7957878388
 O          4.6124706566        2.5562351193       -1.6439932484
 C          4.5170266933        0.3150920314       -0.2042640393
 C          4.3368305683       -0.4888866044       -1.3121151565
 C          4.5303295896       -1.8546202305       -1.1874512971
 C          4.8871659988       -2.3916263198        0.0400137544
 C          5.0640233257       -1.5707246963        1.1426231915
 C          4.8762596038       -0.2030491825        1.0232333960
 H          5.0058438654        0.4704170875        1.8541924701
 H          5.3425262055       -1.9914369215        2.0952330176
 H          5.0291255450       -3.4565431012        0.1363906447
 H          4.3978495589       -2.4935927314       -2.0460178012
 H          4.0608061218       -0.0356150532       -2.2510239089
 H          2.1618272435        2.0489969551       -1.3629675547
 H          2.7531180314        2.0761197399        2.1984372258
 H          1.6059536196        0.5075860366        3.7469055704
 H          0.0573109340       -1.1902227068        2.8566546545
 C         -0.6085154886       -1.6645386398        0.2728857919
 H         -0.9112398940       -2.3061338930        1.1110848478
 C          0.0944899626       -2.5238801744       -0.7601228461
 C          1.1311265696       -3.5028159828       -0.2998293627
 C         -0.1901163778       -3.9936681125       -0.8091302428
 H         -0.2268418737       -4.4782616693       -1.7733117753
 H         -0.8981303518       -4.3901082507       -0.0960509763
 H          2.0066026728       -3.6496391041       -0.9124670818
 H          1.3208616935       -3.5649361081        0.7607724386
 H          0.2590594468       -2.0203337500       -1.7035008992
 O         -3.0074742498       -1.7584686820        1.7269007743
