  62
        -98.93091281
 C         -2.4396766214       -0.7941471240        0.0666111210
 C         -2.9477386146        0.3125827474        0.7936984156
 C         -4.1559637781        0.9567723705        0.2602678426
 C         -4.6936813691        0.4877545894       -0.8800859953
 C         -5.9656743255        0.9765394558       -1.5126246963
 C         -7.1818267508        0.4072640468       -0.7543458804
 C         -8.0272363359        1.4598496689       -0.0368908355
 H         -8.6314536302        1.9925291319       -0.7742694291
 H         -8.7119041471        0.9306500521        0.6293831242
 C         -7.2502290341        2.5026171947        0.7725206051
 H         -7.9722113582        3.0034875693        1.4210609772
 H         -6.8526725984        3.2660180010        0.1021751721
 C         -6.1031406239        1.9635915684        1.6371474393
 H         -6.2654122808        0.9132910444        1.8806274726
 H         -6.1032707779        2.5118155355        2.5815084237
 C         -4.7013586517        2.1332301726        1.0215579635
 H         -4.6880131599        3.0204831592        0.3825316140
 H         -3.9826972876        2.2998874247        1.8294390386
 H         -7.8258644012       -0.1311552646       -1.4512631544
 H         -6.8208049691       -0.3264743571       -0.0304767966
 H         -5.9850737689        2.0640211357       -1.5072157305
 H         -5.9676392452        0.6315005622       -2.5467031761
 O         -4.1693773312       -0.5614785850       -1.5611200915
 C         -3.0360165938       -1.2335673822       -1.1161588386
 O         -2.6911712173       -2.1702519264       -1.8575583822
 O         -2.4128868321        0.7368488868        1.8544877448
 C         -1.2144925025       -1.4782392627        0.6458156794
 C          0.0605950876       -0.9192665236        0.0682167324
 C          0.2585436644       -0.8276389576       -1.3058299316
 C          1.4489026160       -0.3357182378       -1.8101267755
 C          2.4612433611        0.0760836716       -0.9608831001
 C          2.2728325302       -0.0061444158        0.4117572363
 C          1.0768629530       -0.5016254869        0.9153514332
 H          0.9301103795       -0.5544080474        1.9861426322
 N          3.2978224940        0.4182389409        1.2759240247
 S          4.8184278575       -0.2711623229        1.0739837452
 O          4.7181770501       -1.5961184349        0.5076921518
 O          5.4542504303       -0.1693317688        2.3691166124
 C          5.6425824770        0.8207075217       -0.0649005402
 C          6.1143180477        0.3309206258       -1.2670193709
 C          6.7613454574        1.1964227054       -2.1353605860
 C          6.9250426677        2.5285185657       -1.7874036059
 C          6.4481032287        3.0038563070       -0.5747272856
 C          5.8013790950        2.1437665268        0.2982248940
 H          5.4213888640        2.4717338022        1.2513943928
 H          6.5784685858        4.0401526200       -0.3074635248
 H          7.4283393035        3.2000742124       -2.4649534007
 H          7.1339329914        0.8285855450       -3.0778896109
 H          5.9608557294       -0.7115437573       -1.4967960092
 H          3.0345188807        0.4121028480        2.2510995153
 H          3.3893502687        0.4602715056       -1.3513717481
 H          1.5901399792       -0.2726870229       -2.8784993797
 H         -0.5267255066       -1.1537566190       -1.9709605040
 H         -1.2315672853       -1.2120979217        1.7150292967
 C         -1.2806721467       -2.9974651169        0.5643004735
 C         -0.4270719948       -3.8259320369       -0.3427522574
 C         -0.1692296172       -3.8304157012        1.1323467300
 H         -0.4202499109       -4.7115527224        1.7031906724
 H          0.7129586861       -3.3141676824        1.4823690812
 H         -0.8795233059       -4.6936702656       -0.7975809836
 H          0.2829335439       -3.3239277616       -0.9804569086
 H         -2.2897515769       -3.3620612848        0.7298873546
