  62
        -98.94414806
 C         -1.9783710203       -1.2436624234       -0.0101235925
 C         -2.3626634839       -0.2563034682       -0.9491932917
 C         -3.7914710537        0.0921252800       -0.9613036314
 C         -4.6338622341       -0.5379002596       -0.1227565210
 C         -6.0988776939       -0.2401783418        0.0071003216
 C         -6.3542978852        0.8196546321        1.0879333994
 C         -5.4664902202        2.0577939797        0.9607760664
 H         -5.7556352698        2.7484122969        1.7559643398
 H         -4.4276105241        1.7739938195        1.1451693751
 C         -5.5624588141        2.7711350145       -0.3951490312
 H         -5.6369794029        3.8465182097       -0.2201406728
 H         -6.4722794786        2.4636422970       -0.9120873302
 C         -4.3590786196        2.5526294677       -1.3143304575
 H         -3.4368238677        2.7716233999       -0.7696121998
 H         -4.4281411047        3.2666667253       -2.1394662642
 C         -4.2344912212        1.1527978670       -1.9292097279
 H         -5.1771575490        0.8740478790       -2.4044380013
 H         -3.4599902815        1.1974320956       -2.7005435385
 H         -7.4037185977        1.1159418961        1.0401587338
 H         -6.1728406454        0.3678321775        2.0658713243
 H         -6.4816836172        0.1037389302       -0.9516875275
 H         -6.6142000260       -1.1611454319        0.2849172978
 O         -4.2302688045       -1.4955037041        0.7503922523
 C         -2.8971345863       -1.8552416821        0.8452130163
 O         -2.6576559266       -2.7196767746        1.7116824985
 O         -1.5630106471        0.3065752773       -1.7420242209
 C         -0.5222822638       -1.6573885038        0.1293643692
 C          0.2682691011       -0.4668922575        0.6126582170
 C          0.1140250710       -0.0492095431        1.9319864716
 C          0.8007001685        1.0495558506        2.4133440508
 C          1.6532488635        1.7612189490        1.5860214181
 C          1.8066746278        1.3564918146        0.2681102524
 C          1.1264240838        0.2442509395       -0.2103415185
 H          1.2532539665       -0.0510259100       -1.2397231952
 N          2.6903314046        2.0706262858       -0.5734490438
 S          4.3127399632        1.9125538530       -0.1848921245
 O          4.5584472553        2.5697431360        1.0729893094
 O          5.0445859161        2.4130221595       -1.3260019687
 C          4.5495525580        0.1527868750       -0.0164991291
 C          4.8785840622       -0.5835510937       -1.1370885279
 C          4.9729263182       -1.9614876954       -1.0298383515
 C          4.7233791211       -2.5771243644        0.1871717768
 C          4.3906580444       -1.8236246636        1.3022870618
 C          4.3010772678       -0.4444568888        1.2030262870
 H          4.0488259141        0.1753459597        2.0476953852
 H          4.1955146064       -2.3046708119        2.2474042252
 H          4.7889952638       -3.6508932427        0.2667463372
 H          5.2349895756       -2.5510752973       -1.8936902922
 H          5.0665366561       -0.0647295574       -2.0635649046
 H          2.5574086195        1.8538519595       -1.5516217575
 H          2.2077609758        2.6139589296        1.9432445134
 H          0.6707272112        1.3578748763        3.4398075905
 H         -0.5592334734       -0.6001313618        2.5748892517
 H         -0.5017174198       -2.4204861979        0.9189065540
 C          0.0108025582       -2.2655019168       -1.1507417942
 C          1.2978775421       -3.0325518436       -1.1158083927
 C         -0.0005505903       -3.7542528242       -1.3132012145
 H         -0.2216580239       -4.1632143582       -2.2876852584
 H         -0.3914116038       -4.3420937891       -0.4956237392
 H          1.9730376977       -2.9488181443       -1.9536224265
 H          1.7937485915       -3.1257349459       -0.1616242169
 H         -0.2055985534       -1.6691977261       -2.0288217730
