  62
        -98.94348619
 C         -1.5422460306       -1.4634730589        0.0439835778
 C         -2.0430843499       -0.5185525588        0.9720318080
 C         -3.0672916091        0.4023327522        0.4624240883
 C         -3.4756548290        0.2902321531       -0.8147209918
 C         -4.4613898281        1.2060470641       -1.4799953716
 C         -3.7491203371        2.3823315138       -2.1633442411
 C         -2.7224143566        3.0850502026       -1.2743561407
 H         -1.9044266072        2.3927373518       -1.0596817108
 H         -2.3005475558        3.9089512125       -1.8543962303
 C         -3.2876422163        3.6251708026        0.0469818495
 H         -2.9040148755        4.6355853322        0.2032693399
 H         -4.3737968663        3.6981772535       -0.0186552407
 C         -2.9068747672        2.8055320118        1.2813439492
 H         -3.1644406468        3.3889548117        2.1689611394
 H         -1.8261067773        2.6435346709        1.2934593093
 C         -3.5942339783        1.4406978823        1.4120132686
 H         -3.3893789488        1.0596319218        2.4164895885
 H         -4.6738986982        1.5569292433        1.3011505785
 H         -4.5028447264        3.1013220546       -2.4893356309
 H         -3.2331938773        2.0066482337       -3.0503879611
 H         -5.1658065379        1.5756791444       -0.7374422016
 H         -5.0076379285        0.6367301549       -2.2338810719
 O         -2.9875883497       -0.6442020270       -1.6708261521
 C         -1.9916823605       -1.5284357280       -1.2746851723
 O         -1.6022420410       -2.2979697080       -2.1730630226
 O         -1.6446544400       -0.4441858896        2.1640145281
 C         -0.4501330414       -2.4084895300        0.4996363575
 C          0.8502927289       -2.1563728808       -0.2253799622
 C          1.8166241881       -3.1457392115       -0.3721120324
 C          3.0308533384       -2.8670660723       -0.9757682822
 C          3.3128871795       -1.5973618824       -1.4475970817
 C          2.3530379903       -0.6054592816       -1.3133824514
 C          1.1407711200       -0.8846092108       -0.7007880917
 H          0.4061074007       -0.0958870403       -0.5906723415
 N          2.6526849615        0.7071295283       -1.7597206209
 S          3.5839472021        1.5783853271       -0.6682066804
 O          3.6678846633        2.9215418872       -1.1942815599
 O          4.8293832215        0.8808630960       -0.4800988405
 C          2.6292753019        1.5649882373        0.8374778194
 C          1.7693497327        2.6142958580        1.0934684697
 C          0.9525401025        2.5540205382        2.2111172196
 C          0.9910498015        1.4401200979        3.0356886692
 C          1.8588226506        0.3944193472        2.7630730089
 C          2.6889535908        0.4536473570        1.6552103190
 H          3.3799212202       -0.3383331935        1.4147533288
 H          1.8812367598       -0.4717477230        3.4044566386
 H          0.3339371913        1.3798582781        3.8883201991
 H          0.2833703432        3.3706419387        2.4322402098
 H          1.7629021735        3.4577605882        0.4209683001
 H          1.8248492120        1.2469690291       -1.9722859708
 H          4.2590663398       -1.3550011530       -1.9026300314
 H          3.7684420078       -3.6482174429       -1.0781799424
 H          1.6171385272       -4.1401670315       -0.0070558429
 H         -0.2853126313       -2.1629685405        1.5607946977
 C         -0.9078869526       -3.8505897195        0.4025581669
 C         -0.4980572336       -4.8538241303        1.4381126166
 C         -1.9102714832       -4.3558618991        1.3957031466
 H         -2.6870434937       -5.0220633983        1.0517414963
 H         -2.2338306427       -3.6693783091        2.1645957568
 H         -0.3049632444       -5.8686205203        1.1239834062
 H          0.1299686666       -4.5135534811        2.2476563968
 H         -1.0102874928       -4.1853791291       -0.6233643332
