  62
        -98.94493935
 C         -1.8676316802       -0.7217721698       -0.1679091191
 C         -2.4174602299       -0.0653801304        0.9585056114
 C         -3.4892111698        0.8998089599        0.6816583721
 C         -3.8502789499        1.1322332108       -0.5938185877
 C         -4.9642411399        2.0453588912       -1.0149000869
 C         -6.2934384100        1.2847481115       -1.1230102872
 C         -6.6160766300        0.4261255308        0.1000272923
 H         -7.5893014601       -0.0370649589       -0.0759293779
 H         -5.8841358601       -0.3816042294        0.1715203617
 C         -6.6496976196        1.1975681700        1.4267643528
 H         -6.7507895795        2.2658749301        1.2319066835
 H         -7.5315384396        0.8863847798        1.9907614927
 C         -5.4375285596        0.9597235292        2.3290227924
 H         -5.6616612893        1.3734790786        3.3158621627
 H         -5.2788230997       -0.1144492309        2.4529430218
 C         -4.1210606895        1.5901901493        1.8577359327
 H         -4.2758677694        2.6502391894        1.6456570133
 H         -3.4007978394        1.5057503787        2.6770275625
 H         -6.2478160302        0.6316355920       -1.9975682576
 H         -7.0935032299        2.0099990817       -1.2822819767
 H         -5.0552493296        2.8565410008       -0.2949775164
 H         -4.7149190599        2.4647050018       -1.9911590467
 O         -3.2638594302        0.5202134513       -1.6538556981
 C         -2.2635714703       -0.4250704989       -1.4723897189
 O         -1.8183397706       -0.9108159484       -2.5283581192
 H          0.3414153701        0.6402492095        0.2546720514
 C          0.9388606299       -0.0084490502       -0.3741605491
 C          0.5058147196       -1.3086593899       -0.6073098398
 C          1.2910178894       -2.1341142996       -1.4005642205
 C          2.4591753994       -1.6555720294       -1.9701049103
 C          2.8743183996       -0.3551570596       -1.7543893596
 C          2.1063008299        0.4732497300       -0.9448083290
 N          2.5289886101        1.7910648898       -0.7015922482
 S          4.1406006502        2.0382955193       -0.3237377983
 O          4.1620163306        3.2445662988        0.4736148725
 O          4.9233769601        2.0716283199       -1.5340077784
 C          4.6108205702        0.6263609986        0.6604723808
 C          5.5937044999       -0.2320936113        0.2121095201
 C          5.9144127399       -1.3418187618        0.9776639394
 C          5.2468717500       -1.5745370725        2.1698471693
 C          4.2644180402       -0.7000901026        2.6091798500
 C          3.9410477903        0.4117341580        1.8488777907
 H          3.1845318905        1.1122288379        2.1653773313
 H          3.7454834303       -0.8817269131        3.5367831600
 H          5.4928195699       -2.4415000529        2.7624064687
 H          6.6792346797       -2.0222890217        0.6399302188
 H          6.0853850198       -0.0145246608       -0.7219462598
 H          1.9222360003        2.3101625195       -0.0846903278
 H          3.7712084896        0.0369190705       -2.2056650495
 H          3.0529977792       -2.3047633691       -2.5950018108
 H          0.9842978292       -3.1505889994       -1.5829409811
 C         -0.7782289403       -1.7566794901        0.0465462401
 H         -0.6123393602       -1.7812458308        1.1341457000
 C         -1.2492706906       -3.1230774398       -0.4043242107
 C         -0.7191545307       -4.3607245603        0.2537881884
 C         -2.1281573806       -3.9206766402        0.5106524189
 H         -2.9370149608       -4.4922049398        0.0806128487
 H         -2.3636199604       -3.4892250908        1.4728121292
 H         -0.5617394210       -5.2398995099       -0.3524757621
 H          0.0021446794       -4.2353525409        1.0468477784
 H         -1.4704866408       -3.1580010691       -1.4650744207
 O         -2.0247729198       -0.2723822612        2.1391971512
