  62
        -98.94288544
 C         -2.4911172992       -0.2009400313       -0.2470341100
 C         -2.3092580386       -1.4043978613       -0.9726599298
 C         -1.7434035983       -2.5328003710       -0.2282471495
 C         -1.4211906985       -2.3781748807        1.0683377405
 C         -0.7971502982       -3.4209324403        1.9551188607
 C          0.7298865119       -3.4944847497        1.8128316709
 C          1.2299585323       -4.1691472397        0.5342537311
 H          2.2925561423       -4.3753210593        0.6776290412
 H          0.7242303526       -5.1273822399        0.4068245112
 C          1.0623715821       -3.3187256300       -0.7325640091
 H          0.9131325716       -2.2751253800       -0.4454287192
 H          1.9828328822       -3.3628977797       -1.3201364390
 C         -0.0786503977       -3.7585611506       -1.6507453291
 H         -0.1347099978       -3.0568313107       -2.4868874392
 H          0.1380222628       -4.7501519105       -2.0555617790
 C         -1.4568785177       -3.7989890710       -0.9788384693
 H         -1.5254670475       -4.6577162609       -0.3112960692
 H         -2.2147226576       -3.8999250414       -1.7601072994
 H          1.1300700015       -2.4780503096        1.8661085908
 H          1.1132470620       -4.0526692794        2.6706428410
 H         -1.0358443884       -3.1403588402        2.9833581207
 H         -1.2354675978       -4.3979985805        1.7485204208
 O         -1.6422157490       -1.2203140206        1.7419109403
 C         -2.1231132394       -0.0916198609        1.0961748701
 O         -2.1950800998        0.9135631692        1.8308992799
 O         -2.5923441584       -1.5230991016       -2.1961751798
 C         -2.9246319096        1.0311514084       -1.0254169602
 C         -1.9632541500        2.1506476189       -0.7109610003
 C         -2.3417744506        3.4249188288       -0.3139607605
 C         -1.3818472910        4.3608726392        0.0340006195
 C         -0.0389943908        4.0340726897        0.0322124197
 C          0.3497154897        2.7616052898       -0.3717288901
 C         -0.6069333099        1.8547746294       -0.7888401501
 H         -0.2979743395        0.8715258594       -1.1111979499
 N          1.7072043698        2.3653082203       -0.3634653799
 S          2.1155939802        1.0509818706        0.6263854604
 O          1.2115695707       -0.0455159698        0.4108621904
 O          2.2637803699        1.5166210109        1.9915568703
 C          3.7207302205        0.6520951011       -0.0379147994
 C          4.8493891702        1.2255368617        0.5151641807
 C          6.0877796604        0.9361867421       -0.0359399692
 C          6.1756503908        0.0838675619       -1.1261494190
 C          5.0338260111       -0.4863065086       -1.6690037791
 C          3.7929092309       -0.1991301890       -1.1230577492
 H          2.8796121511       -0.6239298494       -1.5073831893
 H          5.1046524614       -1.1514755787       -2.5145352489
 H          7.1399030609       -0.1404280878       -1.5540631189
 H          6.9773671701        1.3751880925        0.3861043509
 H          4.7354791798        1.8703725318        1.3715078706
 H          2.3123846695        3.1335031106       -0.0983159499
 H          0.7038286888        4.7498424200        0.3527318396
 H         -1.6878586414        5.3487565291        0.3442543893
 H         -3.3866548407        3.6801267984       -0.2458024607
 H         -2.7851873793        0.7448015983       -2.0821699401
 C         -4.3880584197        1.4132937479       -0.8725929504
 C         -5.4093003094        0.4009154476       -0.4502922204
 C         -5.0484358199        1.5283769078        0.4673538395
 H         -5.7712123502        2.3174503176        0.6160502993
 H         -4.4469317999        1.3147708882        1.3367231496
 H         -6.3755264193        0.4151787871       -0.9319391905
 H         -5.0568442290       -0.5901381323       -0.2030867802
 H         -4.7047339799        2.1211218977       -1.6326365906
