  62
        -98.93561362
 C          1.6913865469        1.0148150927        0.2868938033
 C          1.9467727307       -0.3734574560        0.1526226401
 C          3.2618734151       -0.7775786600       -0.3794312174
 C          4.1401681374        0.1835244060       -0.7199585836
 C          5.5444172879        0.0272858766       -1.2404977327
 C          6.5432590485       -0.3697270341       -0.1418434761
 C          6.0582741606       -1.4680098824        0.8006105417
 H          6.8080334629       -1.5842804872        1.5877566996
 H          5.1328007778       -1.1449664130        1.2805103342
 C          5.8448908232       -2.8341934770        0.1531032760
 H          6.7811641386       -3.1650667862       -0.3019554664
 H          5.5990609593       -3.5366035070        0.9536381741
 C          4.7374478271       -2.9103204337       -0.9004335344
 H          4.5329556487       -3.9697199855       -1.0805189423
 H          5.0677851773       -2.4951783253       -1.8488146930
 C          3.4148681138       -2.2760829628       -0.4814204303
 H          3.1157870742       -2.6783002566        0.4930498465
 H          2.6342026162       -2.6029430255       -1.1787240525
 H          6.7525619728        0.5174943973        0.4608959662
 H          7.4745511966       -0.6802816382       -0.6186559095
 H          5.5633260042       -0.6878634991       -2.0574985564
 H          5.8387059998        0.9993161948       -1.6425915241
 O          3.8487621902        1.5073139262       -0.5861885186
 C          2.6383569726        1.9636457454       -0.0963071218
 O          2.5551667645        3.2077620084       -0.0620502312
 O          1.1069838884       -1.2554628240        0.4782967600
 C          0.3351039714        1.4008039959        0.8483066420
 C         -0.6500488105        1.7365206174       -0.2458337322
 C         -0.4494211782        2.8122263567       -1.1044008695
 C         -1.3857061071        3.1101253929       -2.0772371163
 C         -2.5429267410        2.3604700648       -2.1986004497
 C         -2.7514595048        1.2824260915       -1.3467236496
 C         -1.7977437839        0.9708586000       -0.3878876734
 H         -1.9552322816        0.1227392595        0.2602127221
 N         -3.9051830088        0.4950523339       -1.4518236832
 S         -4.6266545601       -0.1463330462       -0.0849089207
 O         -5.9932886177       -0.4005563426       -0.4880043003
 O         -4.4516264639        0.7121782392        1.0628834636
 C         -3.8002695723       -1.7020658996        0.1654339289
 C         -3.7627343206       -2.5973748892       -0.8849104153
 C         -3.1346419698       -3.8181358800       -0.7005688007
 C         -2.5591798773       -4.1218886137        0.5239866586
 C         -2.6096597335       -3.2143754007        1.5701942015
 C         -3.2370487734       -1.9918384548        1.3918241158
 H         -3.2942142419       -1.2553632684        2.1784238299
 H         -2.1582593264       -3.4504909774        2.5205128630
 H         -2.0662352835       -5.0708234253        0.6648418726
 H         -3.0924238340       -4.5279381141       -1.5110651187
 H         -4.2232636950       -2.3262439962       -1.8203209926
 H         -4.5842716775        0.8166845922       -2.1257010182
 H         -3.2790763356        2.6057873961       -2.9491425566
 H         -1.2194073287        3.9450516931       -2.7413802921
 H          0.4472663554        3.4044097776       -1.0047785577
 H         -0.0335027997        0.4963959138        1.3516177157
 C          0.3833205204        2.5257517283        1.8647932785
 C         -0.8135225927        2.7524700788        2.7379267348
 C          0.4489773747        2.1972396514        3.3245130914
 H          1.0402990335        2.8306941706        3.9686422932
 H          0.4660043344        1.1536148763        3.6030944299
 H         -1.0885254582        3.7680475044        2.9787254327
 H         -1.6591114468        2.0915203382        2.6122497341
 H          0.9287913449        3.3950392619        1.5218740236
