  62
        -98.92788928
 C         -2.3414800381       -0.8371821033        0.4051045859
 C         -2.8026717896        0.4760157439        0.6682064373
 C         -4.2018394810        0.7855444172        0.3220645190
 C         -4.9700997429       -0.1871697350       -0.1995245162
 C         -6.4130950008       -0.1251431818       -0.6325657371
 C         -7.3833605746        0.6026426093        0.3106025752
 C         -7.8834301687        1.9378133857       -0.2434075484
 H         -8.0671718833        1.8229943536       -1.3136157179
 H         -8.8396999707        2.1754752489        0.2278615074
 C         -6.9496905529        3.1253534937       -0.0160707247
 H         -6.9622679900        3.3976043399        1.0415713866
 H         -7.3521745776        3.9737713992       -0.5745140394
 C         -5.4957249010        2.9059785036       -0.4394563440
 H         -5.4492857945        2.3611218636       -1.3816082164
 H         -5.0480624830        3.8863041485       -0.6162855619
 C         -4.6459838382        2.1912881001        0.6220860708
 H         -3.7154312393        2.7447982054        0.7825705267
 H         -5.1671149901        2.1980741063        1.5840505401
 H         -6.9156276113        0.7473451658        1.2832711826
 H         -8.2489186994       -0.0444652744        0.4615932072
 H         -6.4567295131        0.3236332498       -1.6279682672
 H         -6.7183637394       -1.1675956747       -0.7475637532
 O         -4.4865563310       -1.4379609892       -0.4381448717
 C         -3.1759813534       -1.8014793196       -0.1606174073
 O         -2.9134777038       -2.9791545774       -0.4612738376
 H          1.4582789421        0.1684639812        0.8173907782
 C          1.2301327493       -0.2259833414       -0.1620311624
 C          0.0406462565       -0.9052429152       -0.3786902565
 C         -0.2379822177       -1.3759686370       -1.6580397154
 C          0.6627395608       -1.1762674165       -2.6884846529
 C          1.8627321269       -0.5256836352       -2.4612582881
 C          2.1469294243       -0.0451465690       -1.1884821542
 N          3.3470374516        0.6312122112       -0.9219610951
 S          4.0728638433        0.3685062356        0.5819507285
 O          3.9690975988       -1.0279419540        0.9383755272
 O          3.5317121452        1.3105497808        1.5291244955
 C          5.7639181540        0.7919934507        0.2088662391
 C          6.1307895431        2.1246636351        0.2077795870
 C          7.4365476323        2.4589374592       -0.1142369400
 C          8.3477931369        1.4614633287       -0.4286982863
 C          7.9651204946        0.1285266151       -0.4216936757
 C          6.6604403916       -0.2130645078       -0.1017048816
 H          6.3199907493       -1.2357436322       -0.0748462825
 H          8.6766227204       -0.6445505367       -0.6632626318
 H          9.3635524192        1.7246034041       -0.6781816972
 H          7.7385876169        3.4937999939       -0.1180223416
 H          5.3904518685        2.8633768134        0.4676434817
 H          4.0118185913        0.5733895046       -1.6812438679
 H          2.5703056706       -0.3848558967       -3.2641318785
 H          0.4343382191       -1.5466775684       -3.6766151583
 H         -1.1599162062       -1.9103630173       -1.8315248451
 C         -0.9013256054       -1.1394710669        0.7743334987
 H         -0.6486077863       -0.3996742902        1.5518429859
 C         -0.7144336175       -2.5185063827        1.3932066588
 C         -0.0592973464       -3.6624968375        0.6859892766
 C          0.6490721844       -2.9813138530        1.8161153618
 H          0.7449494272       -3.5035026503        2.7564127013
 H          1.4959449753       -2.3533264947        1.5767517168
 H          0.3047920472       -3.4997279318       -0.3159830878
 H         -0.4700251866       -4.6479657616        0.8432024207
 H         -1.5375810368       -2.7745143515        2.0535690959
 O         -2.0685104388        1.3645045615        1.1825551919
