  62
        -98.93823044
 C          1.2623851798        1.4219276484        0.6556505900
 C          2.1471689873        1.2062019053       -0.4269537865
 C          3.1537164886        0.1402368420       -0.2449789991
 C          3.1284058496       -0.6119670625        0.8680771028
 C          4.0876244651       -1.6860979062        1.3220288177
 C          4.7073650006       -2.6121846371        0.2712030771
 C          3.7470878856       -3.0579212202       -0.8401612775
 H          3.7826140807       -4.1453511676       -0.9274521289
 H          2.7250068906       -2.7859459718       -0.5777528916
 C          4.0907778226       -2.4673242099       -2.2085698746
 H          3.6090459285       -3.0717053067       -2.9811550737
 H          5.1696240677       -2.5386321944       -2.3633730783
 C          3.6510186688       -1.0203706866       -2.4257225968
 H          2.5596389852       -0.9633993026       -2.4665406407
 H          4.0196829995       -0.7024552601       -3.4039700440
 C          4.1387734132       -0.0153181539       -1.3690511194
 H          5.1273870406       -0.2812279054       -1.0028946625
 H          4.2014716563        0.9668540550       -1.8455363066
 H          5.5775899164       -2.1334160005       -0.1745784766
 H          5.0746828529       -3.4885903583        0.8085958405
 H          4.8925316328       -1.1931603654        1.8766050536
 H          3.5273225687       -2.2818883453        2.0473783021
 O          2.1753515629       -0.4451761780        1.8305802557
 C          1.2389333137        0.5658200106        1.7585067780
 O          0.4477132002        0.6045731621        2.7225259424
 H         -1.8915881465        1.2035968171        1.4460341806
 C         -1.9586933433        1.4605171683        0.3964773938
 C         -0.9269181996        2.1859658879       -0.1868262295
 C         -1.0035718072        2.4798584049       -1.5426536969
 C         -2.0930973406        2.0636435130       -2.2889315717
 C         -3.1240378020        1.3497148707       -1.7033832937
 C         -3.0485201238        1.0416580851       -0.3515692382
 N         -4.0808289252        0.2748804028        0.2409904041
 S         -4.0910512281       -1.3393607528       -0.2070530574
 O         -4.2997005313       -1.4209516476       -1.6293341152
 O         -5.0830191681       -1.9774595040        0.6266807810
 C         -2.4621525876       -1.9302539529        0.2138637968
 C         -1.4053798223       -1.6124830222       -0.6158296881
 C         -0.1271582340       -1.9934880077       -0.2433870827
 C          0.0720036429       -2.6880894526        0.9390585567
 C         -0.9994482739       -2.9983490904        1.7613852868
 C         -2.2787285326       -2.6073511405        1.4026046624
 H         -3.1392136442       -2.8222093312        2.0160667179
 H         -0.8375890872       -3.5326014029        2.6837300696
 H          1.0689093149       -2.9831645266        1.2268936249
 H          0.7084110015       -1.7309757414       -0.8746576390
 H         -1.5911390162       -1.0802517398       -1.5348154845
 H         -4.0733525103        0.3251381779        1.2510348114
 H         -3.9697485953        1.0034066092       -2.2746832594
 H         -2.1398237600        2.2977633194       -3.3417240160
 H         -0.1949252651        3.0124225174       -2.0158184139
 C          0.2552807054        2.5628912673        0.6707211350
 H         -0.0990366413        2.6261436469        1.7086264306
 C          0.8731437944        3.8931358752        0.2942440447
 C          0.1246663195        5.1528474423        0.6061208454
 C          1.3609139903        4.8046239471        1.3781778430
 H          2.2584070067        5.3787148732        1.2030354676
 H          1.2482160195        4.4745044322        2.4008588313
 H         -0.8283094074        5.0564525061        1.1045578196
 H          0.1706573470        5.9685137346       -0.0988610936
 H          1.4517519466        3.8618115442       -0.6190862308
 O          2.1384165170        1.8799928384       -1.4888082333
