  62
        -98.95003580
 C         -1.8997476505       -1.0485400583        0.0169217796
 C         -1.3144286709       -1.8133990084       -1.0223267805
 C         -0.2396102713       -2.7279894790       -0.6189003708
 C          0.0962475188       -2.8332306094        0.6798000892
 C          1.1227603084       -3.7690028599        1.2592704589
 C          2.5657390086       -3.2497032606        1.2043988489
 C          3.1976202885       -3.2393646706       -0.1875140811
 H          4.2670673786       -3.0647717911       -0.0557805812
 H          3.0812936180       -4.2200784705       -0.6499786013
 C          2.6347768689       -2.1583113502       -1.1195436409
 H          2.1075248093       -1.4032382700       -0.5325404607
 H          3.4526919892       -1.6374458904       -1.6236368808
 C          1.6938070986       -2.6699589395       -2.2103257609
 H          2.2499812683       -3.2935195397       -2.9146650311
 H          1.3183045190       -1.7979829493       -2.7536659907
 C          0.4922215683       -3.4725598691       -1.6933034710
 H         -0.2008884618       -3.6238039686       -2.5248639910
 H          0.8204603379       -4.4466063193       -1.3294034012
 H          3.1671228084       -3.8949636410        1.8486304888
 H          2.5946970891       -2.2395800607        1.6188238891
 H          1.0637171479       -4.7309890698        0.7489825787
 H          0.8498414884       -3.9145346900        2.3066975489
 O         -0.5107552308       -2.1026985093        1.6517317893
 C         -1.4848850704       -1.1604556888        1.3437270996
 O         -1.8926013501       -0.5137070688        2.3262800197
 O         -1.6822716509       -1.7422138780       -2.2258250805
 C         -2.9572345100       -0.0155715778       -0.3378872101
 C         -2.3840804994        1.3559421519       -0.0731955099
 C         -2.9269684089        2.2676382320        0.8218142303
 C         -2.2960593684        3.4787557916        1.0501417305
 C         -1.1122352383        3.7961557112        0.4100842805
 C         -0.5648173587        2.8945950012       -0.4973074697
 C         -1.2167189393        1.6975221515       -0.7470719099
 H         -0.7962501496        1.0064353715       -1.4637048100
 N          0.6316169014        3.1937941007       -1.1719243097
 S          1.8464915808        2.0608595002       -1.3535148000
 O          2.9483099311        2.8090019698       -1.9182514399
 O          1.3725862103        0.9432488606       -2.1256590202
 C          2.2773646107        1.5487605497        0.3003258799
 C          3.4324909710        2.0444010091        0.8731898399
 C          3.7538157409        1.6731252887        2.1687944898
 C          2.9113920006        0.8271202089        2.8744450397
 C          1.7514805803        0.3428844196        2.2893051497
 C          1.4329914804        0.7006557400        0.9885636498
 H          0.5380908702        0.3298574205        0.5125800697
 H          1.0810117100       -0.3072528302        2.8308920296
 H          3.1565409905        0.5407660386        3.8850391396
 H          4.6562888211        2.0459911782        2.6256117298
 H          4.0564425912        2.6998435289        0.2874850700
 H          1.0268651518        4.0925760605       -0.9355502496
 H         -0.6140925478        4.7336206210        0.6053060007
 H         -2.7254965780        4.1795234117        1.7497969907
 H         -3.8354323790        2.0269085323        1.3481876104
 H         -3.1104276801       -0.1180066875       -1.4223135501
 C         -4.2655566901       -0.2888481473        0.3703256499
 C         -5.5441501099        0.2526515134       -0.1935956999
 C         -5.2559657406       -1.2159898468       -0.2653248402
 H         -5.8166105908       -1.8850409766        0.3700247597
 H         -4.9951554608       -1.6415951467       -1.2235378803
 H         -6.3075213197        0.5916970736        0.4900236702
 H         -5.4832553997        0.8258028835       -1.1064628498
 H         -4.1596439301       -0.3366122776        1.4477298199
