  62
        -98.94106154
 C         -1.7394843981       -0.9691557398        0.2937773324
 C         -2.1535486958        0.3782312575        0.4385723461
 C         -3.6019918365        0.5839538221        0.5952258801
 C         -4.4326358557       -0.4715038070        0.6520579382
 C         -5.9259660935       -0.4191728271        0.8280149181
 C         -6.7003135813       -0.1921424768       -0.4775422076
 C         -6.6046497972        1.2213033090       -1.0533990569
 H         -7.3608530037        1.2997769297       -1.8370220447
 H         -6.8612836122        1.9459204861       -0.2799838723
 C         -5.2353797737        1.5700911487       -1.6536190098
 H         -4.6708379223        0.6520991338       -1.8330650989
 H         -5.3746484133        2.0530620773       -2.6234725106
 C         -4.3888501208        2.5118899269       -0.7969239986
 H         -3.4292983208        2.6634502160       -1.2987517529
 H         -4.8836631563        3.4827861253       -0.7212171192
 C         -4.1066292633        1.9950794347        0.6200142071
 H         -5.0048263247        2.0687083184        1.2328255110
 H         -3.3262885036        2.6185156740        1.0637855218
 H         -6.3514065579       -0.9126188996       -1.2210053040
 H         -7.7518041073       -0.4077197456       -0.2743375452
 H         -6.1834703644        0.3603728466        1.5455363656
 H         -6.2238679269       -1.3851455100        1.2414390745
 O         -3.9869437762       -1.7537916687        0.5767218947
 C         -2.6436462642       -2.0316544268        0.3828078267
 O         -2.3797103301       -3.2488505202        0.3209690560
 O         -1.3751397542        1.3659579420        0.4424126170
 C         -0.2828711817       -1.3451000893        0.0824341008
 C          0.6070299133       -0.5590515524        1.0122487120
 C          0.4931558942       -0.7707651176        2.3841888619
 C          1.2862342376       -0.0743487931        3.2746697341
 C          2.2283532531        0.8300326362        2.8157446260
 C          2.3485579964        1.0491842375        1.4493341724
 C          1.5402863909        0.3577734919        0.5567517218
 H          1.6196708570        0.5849222041       -0.4924114488
 N          3.2924579073        1.9571126364        0.9515320200
 S          4.0467783619        1.6740352547       -0.5071789408
 O          5.3008364872        2.3911672836       -0.4074852723
 O          3.1987827223        2.0529026524       -1.6088893475
 C          4.3554663142       -0.0840097806       -0.5536286514
 C          3.9232149782       -0.8228532840       -1.6356946240
 C          4.1643961086       -2.1874752191       -1.6579119367
 C          4.8289998963       -2.7875011644       -0.5999302393
 C          5.2637602800       -2.0307614291        0.4774535929
 C          5.0276952630       -0.6659848826        0.5029041945
 H          5.3603662866       -0.0512179254        1.3231379322
 H          5.7832837171       -2.5003867024        1.2970367189
 H          5.0099809378       -3.8506319916       -0.6168725934
 H          3.8290999335       -2.7769623720       -2.4966034215
 H          3.4042630837       -0.3166597672       -2.4342712252
 H          3.9121317925        2.3610723245        1.6371816475
 H          2.8517718604        1.3738310963        3.5089731943
 H          1.1780173202       -0.2413500612        4.3357883994
 H         -0.2398978131       -1.4811547080        2.7423240351
 H         -0.2190013413       -2.4059561596        0.3760081965
 C          0.1711955802       -1.2689281143       -1.3676712359
 C         -0.7788656359       -1.5330196824       -2.4960896905
 C         -0.2398630820       -0.1525795107       -2.2777878684
 H          0.4878480953        0.2392156974       -2.9742904936
 H         -0.8983802927        0.6022615769       -1.8775114752
 H         -0.4238578852       -2.0982012394       -3.3445612430
 H         -1.8125970387       -1.7244120995       -2.2465894866
 H          1.1809160830       -1.6493307540       -1.4902914179
