  62
        -98.94212204
 C         -1.9779144609       -0.7177977376        0.5068550403
 C         -1.4687729550        0.3889643123        1.2218939594
 C         -1.8654267397        1.7333263974        0.7641603580
 C         -2.6721891378        1.8371002800       -0.3076649422
 C         -3.2039381593        3.0817671538       -0.9694230403
 C         -2.1536760287        3.7964914716       -1.8311726459
 C         -0.7914540378        3.9700521131       -1.1655532280
 H         -0.3743741838        2.9871187175       -0.9356734926
 H         -0.1218787196        4.4293394874       -1.8986391840
 C         -0.7879139251        4.8485758655        0.0840960043
 H          0.2572353875        4.9890109989        0.3720488108
 H         -1.1974865671        5.8294536058       -0.1684611316
 C         -1.5422211958        4.3001132229        1.2987903716
 H         -2.6130065870        4.4630397990        1.2095058591
 H         -1.2124587159        4.8726785075        2.1705374175
 C         -1.2597524436        2.8330636130        1.6024004301
 H         -0.1754543189        2.6710374135        1.5802085858
 H         -1.5657370409        2.6191867329        2.6334994284
 H         -2.0047748699        3.2109013234       -2.7420035989
 H         -2.5502690231        4.7730157325       -2.1169586417
 H         -4.0241104453        2.7623254279       -1.6167364739
 H         -3.6136868891        3.7577277878       -0.2245618618
 O         -3.1228146775        0.7412731857       -0.9831018638
 C         -2.7664609884       -0.5466942606       -0.6294562578
 O         -3.2222886357       -1.4283296989       -1.3838509664
 H          0.7385517450       -0.9932109517        0.2388386810
 C          0.5421689005       -1.8360289818       -0.4033617272
 C         -0.5973980235       -2.5999679860       -0.1799352920
 C         -0.8371554410       -3.6939995675       -0.9984725935
 C          0.0287658532       -3.9812480574       -2.0410143753
 C          1.1243735754       -3.1788959170       -2.3000816682
 C          1.3808643740       -2.0881653224       -1.4737806465
 N          2.4800406952       -1.2513276274       -1.7017362695
 S          2.4874377967        0.3643741688       -1.2549314419
 O          1.1600913817        0.9270902248       -1.1944991823
 O          3.3987450272        0.9823999187       -2.1969023144
 C          3.2723271577        0.3377958451        0.3440395171
 C          2.5637999354        0.5939034311        1.4994998775
 C          3.2272741937        0.5461686844        2.7167525087
 C          4.5792159021        0.2461286079        2.7589266309
 C          5.2792612476       -0.0063903697        1.5881541261
 C          4.6221464618        0.0395800514        0.3704440587
 H          5.1293140537       -0.1370118531       -0.5634141794
 H          6.3314390679       -0.2387552201        1.6224220309
 H          5.0886055896        0.2098450977        3.7090036832
 H          2.6735594175        0.7396888284        3.6216837970
 H          1.5077530639        0.8137662690        1.4517573239
 H          2.9690505508       -1.4092074922       -2.5697741685
 H          1.7738058921       -3.3864413774       -3.1369552678
 H         -0.1681374061       -4.8305706991       -2.6778818352
 H         -1.7089658324       -4.3064304898       -0.8379449032
 C         -1.5319338795       -2.1176269138        0.9024553217
 H         -0.9525783627       -1.9908095458        1.8281888045
 C         -2.7020372432       -3.0352167700        1.1738060950
 C         -2.4999498058       -4.2679937450        2.0021240369
 C         -3.2663158673       -3.1076782098        2.5599832973
 H         -4.3356592493       -3.2011896005        2.6754829018
 H         -2.7968731393       -2.5020332733        3.3212966184
 H         -3.0438077790       -5.1619209789        1.7374678823
 H         -1.5082871295       -4.4523210509        2.3864922393
 H         -3.4018642304       -3.0812571056        0.3479053994
 O         -0.7005847948        0.2668066845        2.2162001239
