  62
        -98.94184916
 C         -2.2526914400       -0.7323978681        0.1305923518
 C         -3.4374598681       -1.0069411490        0.8644653255
 C         -4.3765586773        0.1075356160        1.0258885404
 C         -4.0541272643        1.3228010046        0.5489163002
 C         -4.8915675933        2.5680368609        0.6573120378
 C         -5.9636537029        2.6945658714       -0.4339424269
 C         -7.1528887822        1.7435809465       -0.2917265547
 H         -7.5645975251        1.8271188335        0.7144936750
 H         -7.9212391148        2.0861001451       -0.9876862613
 C         -6.8298176761        0.2743581349       -0.5978482585
 H         -7.6048176580       -0.1416310345       -1.2455265411
 H         -5.8882643712        0.2165440409       -1.1492165247
 C         -6.7387657035       -0.6249599619        0.6351950988
 H         -7.7148711173       -0.6784919778        1.1221056627
 H         -6.4716174942       -1.6324837407        0.3058582493
 C         -5.7001882057       -0.1733875468        1.6705248135
 H         -6.0581171249        0.7068328917        2.2039660021
 H         -5.5549214388       -0.9843353194        2.3882813855
 H         -6.3397115816        3.7198073725       -0.4031516320
 H         -5.4903641156        2.5441695148       -1.4071824553
 H         -5.3633779200        2.6080181053        1.6395293438
 H         -4.2051311834        3.4127514889        0.5663302839
 O         -2.8802561280        1.5649711911       -0.0897997153
 C         -1.9622505486        0.5494759480       -0.3408733315
 O         -0.9636522546        0.9352205977       -0.9777897427
 O         -3.6971257360       -2.1338155450        1.3628351481
 C         -1.2852718215       -1.8872936233       -0.0679386418
 C          0.1041268690       -1.4767360153        0.3439379283
 C          0.4432193179       -1.4651794838        1.6935306769
 C          1.6961194538       -1.0481936321        2.1017418283
 C          2.6315985200       -0.6223561463        1.1747802739
 C          2.2944155265       -0.6090907540       -0.1715591313
 C          1.0451638050       -1.0561749852       -0.5816565680
 H          0.7887885061       -1.0323033021       -1.6293340889
 N          3.2296168635       -0.1670739602       -1.1215356990
 S          4.1396682384        1.2037365385       -0.7949640243
 O          3.4551334671        2.1238637071        0.0829041323
 O          4.5245796220        1.7151369935       -2.0929113270
 C          5.5885089553        0.5529196092        0.0145963759
 C          5.9944448535        1.0762834682        1.2264710678
 C          7.1300818817        0.5622833666        1.8331856712
 C          7.8374436378       -0.4599022693        1.2195275794
 C          7.4189676772       -0.9725388450        0.0006179531
 C          6.2851507098       -0.4624796722       -0.6111300596
 H          5.9288934192       -0.8305987627       -1.5585754999
 H          7.9717883830       -1.7672141958       -0.4738816875
 H          8.7200883588       -0.8589011087        1.6939038216
 H          7.4567660490        0.9607142193        2.7803220238
 H          5.4101706433        1.8677359472        1.6688585617
 H          2.8586053831       -0.1309092709       -2.0602275990
 H          3.6045263806       -0.2800632871        1.4871609653
 H          1.9476665058       -1.0492879937        3.1514942828
 H         -0.2932097543       -1.7784065960        2.4207294377
 H         -1.6370500956       -2.6557933053        0.6391919326
 C         -1.3301657529       -2.5216966903       -1.4505431302
 C         -2.6391988648       -2.7085779068       -2.1561314891
 C         -1.6235459897       -1.7524537109       -2.7021594279
 H         -1.0952788754       -2.0279435943       -3.6037495298
 H         -1.8105315838       -0.6933987936       -2.6166007893
 H         -2.8157409908       -3.6330619961       -2.6846827265
 H         -3.5197464036       -2.2999343999       -1.6818502816
 H         -0.6130899858       -3.3322613345       -1.5401842337
