  62
        -98.93981261
 C          0.8734515445        1.2719350682       -0.3251624827
 C          1.9464984815        1.3507887753        0.5975191534
 C          2.9135414851        0.2375656720        0.6154865934
 C          2.7319057433       -0.7837943760       -0.2415650390
 C          3.6119957948       -1.9863054400       -0.4563663694
 C          4.8846385818       -1.6517159400       -1.2516466257
 C          5.5974759469       -0.3733828512       -0.8185210580
 H          6.4153728562       -0.1949109744       -1.5217805719
 H          4.9081450771        0.4684761914       -0.9050743106
 C          6.1897306217       -0.4024341991        0.5885384505
 H          6.9057965074       -1.2243330246        0.6590240365
 H          6.7423356378        0.5305878657        0.7261414342
 C          5.1849525666       -0.5322142613        1.7353904988
 H          5.7153348667       -0.2882758281        2.6605790601
 H          4.8392498232       -1.5569058330        1.8398318007
 C          3.9960020426        0.4199724275        1.6519684553
 H          3.4798587075        0.4186623688        2.6195251560
 H          4.3652449260        1.4440330266        1.5258077566
 H          5.5711219097       -2.4967809109       -1.1762507735
 H          4.6059893899       -1.5361775614       -2.3019775279
 H          3.8630284289       -2.4422288192        0.4963803885
 H          3.0261583208       -2.7058238661       -1.0310681479
 O          1.6834963930       -0.8215583881       -1.1097774035
 C          0.7250053132        0.1734503271       -1.1711864190
 O         -0.1689518162       -0.0496847611       -2.0111593398
 O          2.1048807615        2.3290985206        1.3769840067
 C         -0.1090609014        2.4313457996       -0.3248464348
 C         -1.3017030116        2.1026193516        0.5401458153
 C         -1.5084376017        2.7791797272        1.7371512741
 C         -2.5859085018        2.4664136984        2.5462116592
 C         -3.4676827704        1.4656798555        2.1823920843
 C         -3.2662010308        0.7789774841        0.9886896483
 C         -2.1937145714        1.1046337276        0.1706266203
 H         -2.0492980284        0.5662109934       -0.7528763482
 N         -4.1429002936       -0.2446923067        0.6122563379
 S         -3.7103330641       -1.4647023193       -0.4333667497
 O         -3.7098454217       -0.9834194799       -1.7911001712
 O         -4.6736369672       -2.5119538749       -0.1518039937
 C         -2.0933415005       -2.0537567223        0.0403755801
 C         -1.6686758003       -1.9689180255        1.3509177612
 C         -0.4394639100       -2.5099592347        1.6926752139
 C          0.3307086017       -3.1426205799        0.7303848017
 C         -0.1139059047       -3.2273630174       -0.5790887187
 C         -1.3339564053       -2.6735869147       -0.9302944839
 H         -1.7029898355       -2.6953548347       -1.9429905394
 H          0.4864042716       -3.7124479049       -1.3321314046
 H          1.2841648013       -3.5676801002        1.0018011160
 H         -0.0875535126       -2.4361739529        2.7093619062
 H         -2.2815702542       -1.4799036601        2.0906021123
 H         -4.8002148769       -0.5474327831        1.3148518668
 H         -4.3059312398        1.2125598613        2.8132231822
 H         -2.7367095707        3.0006312229        3.4717804215
 H         -0.8070167727        3.5437298236        2.0366667282
 H          0.4291195677        3.2611359694        0.1539181379
 C         -0.5375799821        2.8768590371       -1.7078905425
 C         -1.0543079549        4.2717129411       -1.8890757346
 C          0.2872890362        3.8915989808       -2.4385781392
 H          0.4003359216        3.7893912040       -3.5074549798
 H          1.1678067367        4.2721018606       -1.9413249260
 H         -1.8672859455        4.4325712218       -2.5803863069
 H         -1.0820945151        4.9121330194       -1.0203823935
 H         -0.9935528931        2.0915308387       -2.2967384946
