  62
        -98.93891001
 C         -2.0681400000       -0.9456152481       -0.4223425112
 C         -3.1227072898       -1.1839202821        0.4911704356
 C         -4.3937711115       -0.4852573621        0.2359708973
 C         -4.4864052648        0.3518501848       -0.8141746555
 C         -5.6483775914        1.1707496635       -1.3366879934
 C         -6.8927422169        1.3965437891       -0.4819226393
 C         -6.6692721857        2.2623354729        0.7575321864
 H         -6.4681122301        3.2867730637        0.4339186708
 H         -7.5945094959        2.2729549905        1.3378398750
 C         -5.5189583961        1.8322734379        1.6645557038
 H         -5.4727145612        2.5353245800        2.5007637068
 H         -4.5736970283        1.9157136386        1.1238866184
 C         -5.6358800398        0.4251248395        2.2469562509
 H         -4.8431056008        0.3109253056        2.9911019992
 H         -6.5936745972        0.3178363292        2.7597255349
 C         -5.4889481379       -0.7245224310        1.2351395983
 H         -5.2079188645       -1.6255918403        1.7879786691
 H         -6.4299717009       -0.9312441113        0.7311348825
 H         -7.3390121640        0.4453941150       -0.2070961144
 H         -7.6166893199        1.9132410286       -1.1179996573
 H         -5.2252634374        2.1410684969       -1.6159084987
 H         -5.9541294326        0.6887819543       -2.2720025837
 O         -3.4381682160        0.5560473240       -1.6643342886
 C         -2.2133023212       -0.0699609336       -1.4964199110
 O         -1.3679229760        0.2325335736       -2.3600246650
 H          1.2125489276       -0.4135189880       -1.6915016288
 C          1.1927193220       -0.0656702146       -0.6710728734
 C          0.2729335475       -0.5933589567        0.2214848620
 C          0.2572338629       -0.1091657709        1.5270610639
 C          1.1311062240        0.8854503092        1.9233561358
 C          2.0379017182        1.4215283250        1.0255048515
 C          2.0612541690        0.9451524372       -0.2783789293
 N          2.9764115014        1.4867513849       -1.1952996076
 S          4.5600316078        1.6989203505       -0.7063538418
 O          4.6718080782        2.9034006692        0.0786541283
 O          5.3421829851        1.6630866930       -1.9220592390
 C          4.9206745895        0.2790689073        0.3122028792
 C          4.8845950097       -0.9685032485       -0.2787949740
 C          5.1223307637       -2.0873945995        0.5022840874
 C          5.3874941611       -1.9406665454        1.8554750940
 C          5.4239174484       -0.6813099969        2.4330475982
 C          5.1870848178        0.4416439606        1.6561892404
 H          5.2063336997        1.4387547190        2.0647395721
 H          5.6324654499       -0.5701300000        3.4849143466
 H          5.5678894134       -2.8140451633        2.4621419999
 H          5.0964847327       -3.0680646715        0.0549670114
 H          4.6816375032       -1.0463460246       -1.3347814267
 H          2.9152462154        1.0912224760       -2.1212961515
 H          2.7144540483        2.2110927707        1.3096737833
 H          1.1048809470        1.2519102737        2.9382804205
 H         -0.4615701152       -0.5168145530        2.2241145943
 C         -0.7369378129       -1.6384233283       -0.1823296061
 H         -0.9066733386       -2.2985589532        0.6788808661
 C         -0.3129157880       -2.4811086069       -1.3663227111
 C          0.7728052867       -3.4991362708       -1.1895802327
 C         -0.6460018494       -3.9416867320       -1.3806218952
 H         -0.9241738163       -4.3961635682       -2.3197844429
 H         -1.1773378126       -4.3412892582       -0.5294415947
 H          1.2052240210       -3.5964014041       -0.2054812091
 H          1.4713989846       -3.6548429177       -1.9974065230
 H         -0.3690891226       -1.9537571290       -2.3109988009
 O         -3.0116778560       -1.9583154079        1.4787189039
