  62
        -98.93554737
 C          1.7021978894        1.1306081889        0.6145864482
 C          1.9469389224       -0.2552977310        0.7871674140
 C          3.3135331262       -0.7450555336        0.5254690770
 C          4.2527793759        0.1419065067        0.1485146341
 C          5.6971107581       -0.1120054168       -0.1933777128
 C          5.8770758939       -0.7427868755       -1.5832354749
 C          4.9060905869       -1.8759641537       -1.9036096658
 H          3.8829829695       -1.5040343286       -1.8236731844
 H          5.0655522233       -2.1642231939       -2.9460525405
 C          5.0611815727       -3.1281421843       -1.0437585055
 H          4.3784816530       -3.8819264399       -1.4440833437
 H          6.0782678661       -3.5119230340       -1.1505584530
 C          4.7588477737       -2.9593438224        0.4469413804
 H          5.5860225802       -2.4805405565        0.9641214235
 H          4.6650626476       -3.9618661697        0.8744611058
 C          3.4542516326       -2.2307525316        0.7539809689
 H          3.2060149857       -2.3896139392        1.8101775038
 H          2.6385018817       -2.7014073520        0.1936271675
 H          6.9035006340       -1.1039357820       -1.6676949075
 H          5.7326077799        0.0408677035       -2.3310432718
 H          6.1955664305        0.8599022602       -0.1856712321
 H          6.1594836146       -0.7265084567        0.5734340468
 O          3.9721161173        1.4649760537       -0.0133168111
 C          2.7122636105        1.9961363667        0.1970122117
 O          2.6491185921        3.2229208453       -0.0191569152
 O          1.0529485275       -1.0648775927        1.1539133649
 C          0.2903659412        1.6085519956        0.9016578017
 C         -0.5304527647        1.7238379826       -0.3604604018
 C         -0.2038201131        2.6293041079       -1.3644739081
 C         -0.9935760148        2.7291531410       -2.4950714067
 C         -2.1275745460        1.9482468846       -2.6373562170
 C         -2.4598344627        1.0375874726       -1.6414669029
 C         -1.6522658942        0.9236903879       -0.5185679517
 H         -1.9045759330        0.2046562911        0.2453739392
 N         -3.5904840437        0.2198636613       -1.7627103755
 S         -4.4909927366       -0.1963606284       -0.4156028497
 O         -5.7839424655       -0.5664883577       -0.9505312844
 O         -4.4909135195        0.8568603381        0.5724022302
 C         -3.6918117013       -1.6523319535        0.2226660748
 C         -3.3481385680       -1.7164700308        1.5580047221
 C         -2.7418426871       -2.8651849181        2.0405038354
 C         -2.4930321675       -3.9251073670        1.1830314799
 C         -2.8482524216       -3.8469570198       -0.1550660332
 C         -3.4552040438       -2.7013877190       -0.6430869371
 H         -3.7473612149       -2.6045552289       -1.6754742327
 H         -2.6511976103       -4.6740243405       -0.8181504972
 H         -2.0163965419       -4.8157982267        1.5609115393
 H         -2.4607721239       -2.9258923740        3.0796846402
 H         -3.5533948145       -0.8663621115        2.1900880789
 H         -4.1692912188        0.4028501164       -2.5690654968
 H         -2.7503054292        2.0399030134       -3.5144127108
 H         -0.7307122297        3.4331932281       -3.2703418497
 H          0.6755897116        3.2446748651       -1.2516625389
 H         -0.1609999116        0.8140303123        1.5117158184
 C          0.2253497182        2.9054881648        1.6854521503
 C         -1.0698378786        3.2828568935        2.3381714332
 C          0.0974685428        2.8582037950        3.1768728321
 H          0.6117304989        3.6062293041        3.7615003509
 H          0.0615190913        1.8858016911        3.6461060800
 H         -1.3568122245        4.3233156928        2.3465442890
 H         -1.9026143913        2.6027445367        2.2309029182
 H          0.8250240742        3.6990527465        1.2595902949
