  62
        -98.93677751
 C         -2.4180304601       -1.2478755903        0.1037534055
 C         -2.2926434336        0.0336993344       -0.4871032468
 C         -3.5542586288        0.6830729722       -0.8814933175
 C         -4.7224273276        0.0528331054       -0.6662135305
 C         -6.0769551736        0.6234408498       -0.9691666704
 C         -6.6455758385        1.3748652071        0.2427724192
 C         -5.6676661535        2.3702155881        0.8672659836
 H         -6.1873204961        2.8625110271        1.6920677277
 H         -4.8266831087        1.8222760482        1.2985558155
 C         -5.1329259092        3.4305622714       -0.1053453468
 H         -5.7773697934        3.4869821301       -0.9833059815
 H         -5.1672464232        4.4053226608        0.3856321674
 C         -3.6867597468        3.2093190228       -0.5530319013
 H         -3.3425465432        4.1178422441       -1.0545636768
 H         -3.0489017007        3.0580697443        0.3217597097
 C         -3.4584443237        2.0404046604       -1.5197335486
 H         -4.1467834503        2.1197169292       -2.3638401951
 H         -2.4358448245        2.1208965135       -1.9010426013
 H         -6.9218776289        0.6427095674        1.0049480341
 H         -7.5506420166        1.8986378896       -0.0697993126
 H         -6.0000725587        1.2935289426       -1.8231254626
 H         -6.7474795449       -0.1992816515       -1.2228487972
 O         -4.8037338339       -1.1730345804       -0.0886076313
 C         -3.6636125804       -1.8413431096        0.3260675492
 O         -3.8866327035       -2.9372181484        0.8774461204
 H          1.4204679160       -1.3876380522       -0.0378558787
 C          1.0580148532       -0.9068188489        0.8541597205
 C         -0.2409323925       -1.1153135229        1.2896552627
 C         -0.6769989117       -0.4541890034        2.4351517454
 C          0.1599698593        0.4107459565        3.1119512186
 C          1.4502855930        0.6303065176        2.6637802716
 C          1.9008926353       -0.0353767185        1.5296126493
 N          3.2280213219        0.1394200635        1.0977739424
 S          3.6551764834        0.0419112226       -0.5299198530
 O          2.9590764746        1.0399889336       -1.3103326758
 O          3.5330169387       -1.3247152335       -0.9701905304
 C          5.3819239481        0.4721546830       -0.3968248374
 C          6.2848682421       -0.5114875778       -0.0408171084
 C          7.6232114489       -0.1774106022        0.0913581511
 C          8.0348989226        1.1279954468       -0.1326442094
 C          7.1179932874        2.1043874981       -0.4916275997
 C          5.7778198090        1.7764957422       -0.6246650748
 H          5.0315916495        2.4998911606       -0.9122211847
 H          7.4411789653        3.1175532513       -0.6688267958
 H          9.0772325683        1.3854708722       -0.0298945685
 H          8.3393666799       -0.9346038589        0.3670690663
 H          5.9198381021       -1.5132646376        0.1141808748
 H          3.6641970389        0.9476779174        1.5210912523
 H          2.1025740589        1.3132265003        3.1869276199
 H         -0.1957825518        0.9251258811        3.9923453516
 H         -1.6907672559       -0.6174112866        2.7771565019
 C         -1.2054992463       -2.0315619725        0.5768488854
 H         -1.5996600869       -2.7470051433        1.3184281345
 C         -0.5420246271       -2.8596990490       -0.5133536493
 C         -1.3248191796       -3.3986183039       -1.6720712565
 C         -0.3056191537       -2.3230822204       -1.8917188981
 H          0.6215447741       -2.5759905427       -2.3863423231
 H         -0.6453484096       -1.3209762899       -2.1025747643
 H         -1.1039185425       -4.3970479569       -2.0182045679
 H         -2.3702854551       -3.1341676689       -1.7379666349
 H          0.2276669972       -3.5128353616       -0.1122720216
 O         -1.1957571937        0.6205850750       -0.6786743333
