  62
        -98.94432886
 C         -1.3098925408       -1.6645260871       -0.8817189660
 C         -2.5270614848       -1.4971486684       -0.1709591015
 C         -3.3322609425       -0.3235153005       -0.5173510198
 C         -2.9139786615        0.5036979655       -1.4916817759
 C         -3.5986955194        1.7657017426       -1.9391953026
 C         -3.2409328350        2.9816165084       -1.0729008282
 C         -3.8949676848        3.0053519119        0.3093633252
 H         -3.7588726543        4.0121408725        0.7096169854
 H         -4.9678769729        2.8346643042        0.2092201961
 C         -3.2988836701        1.9990432111        1.3041097771
 H         -3.1365709301        2.4933321967        2.2655404147
 H         -2.3160845355        1.6773179525        0.9487359942
 C         -4.1723121132        0.7717589635        1.5696916939
 H         -3.6279168017        0.1069773391        2.2457645734
 H         -5.0936209951        1.0814980250        2.0690757278
 C         -4.5429270701       -0.0307744093        0.3157601285
 H         -4.9673284281       -0.9861567724        0.6346637241
 H         -5.2883709892        0.5069897075       -0.2696664800
 H         -2.1545231478        3.0188675708       -0.9546944922
 H         -3.5514852648        3.8771093349       -1.6168724315
 H         -4.6795781180        1.6220168683       -1.9451473139
 H         -3.2652732694        1.9589050130       -2.9611056282
 O         -1.7857444402        0.2694552150       -2.2047143516
 C         -0.9198795453       -0.7707825643       -1.8786014014
 O          0.1169386610       -0.7773972937       -2.5682316426
 O         -2.9138926283       -2.2958964347        0.7248929525
 C         -0.4028103691       -2.7738526519       -0.3728501354
 C          0.2435405310       -2.2849508953        0.9014042232
 C          0.2715027783       -3.0530357927        2.0575277853
 C          0.7952181645       -2.5302889208        3.2280940835
 C          1.2811641599       -1.2364222051        3.2707789894
 C          1.2644535502       -0.4610681134        2.1141262789
 C          0.7733467030       -1.0029032584        0.9377795042
 H          0.7451799199       -0.3983376993        0.0474303404
 N          1.7471145470        0.8484560229        2.1265715306
 S          1.5275473935        1.9724335446        0.9120465231
 O          1.8085353532        3.2341581553        1.5653681939
 O          0.2343997298        1.8630802651        0.2817092361
 C          2.8611977703        1.6029937292       -0.2087085424
 C          4.1340909700        1.9243523571        0.2263171857
 C          5.2179380699        1.6344381370       -0.5840721711
 C          5.0141186110        1.0255416309       -1.8140330375
 C          3.7327778550        0.7129614501       -2.2372396010
 C          2.6415061433        1.0036107915       -1.4311266245
 H          1.6407821771        0.7562684032       -1.7513439367
 H          3.5626514476        0.2381299026       -3.1902811275
 H          5.8568109835        0.7949071322       -2.4465340199
 H          6.2151461942        1.8807562461       -0.2567436146
 H          4.2445312786        2.4066955993        1.1834262732
 H          1.9407303245        1.2521117800        3.0286775361
 H          1.6596727647       -0.8207748986        4.1919085907
 H          0.8058949725       -3.1311060325        4.1249277177
 H         -0.1466873429       -4.0486538565        2.0453371944
 H         -1.0748467366       -3.6043685450       -0.1015261930
 C          0.5953019503       -3.3042529488       -1.3869374061
 C          2.0459083704       -2.9365833112       -1.3767147288
 C          1.6228428764       -4.3137835324       -0.9672235554
 H          1.8347686234       -5.1396997157       -1.6289383367
 H          1.6780386101       -4.5602861408        0.0823277788
 H          2.5309155974       -2.7998300432       -2.3306346819
 H          2.3959272787       -2.2586634052       -0.6134205135
 H          0.1436973008       -3.4431861119       -2.3632378162
