  62
        -98.94499120
 C         -2.4586799314       -1.1899171172       -0.0842274467
 C         -3.2843590490       -0.5103781374        0.8505224739
 C         -3.9379613576        0.7117276575        0.3740935751
 C         -3.7464599587        1.1167641351       -0.8941154843
 C         -4.3462567725        2.3385259621       -1.5349173713
 C         -3.5613988406        3.6290171467       -1.2612925159
 C         -3.6872845046        4.1774031261        0.1607627454
 H         -3.2761409336        5.1887685355        0.1501468757
 H         -4.7419497712        4.2565058515        0.4263963486
 C         -2.9459735591        3.3561135277        1.2251542209
 H         -2.2123993894        2.7064155724        0.7403216633
 H         -2.3873887719        4.0293420542        1.8794614748
 C         -3.8522679828        2.5072283570        2.1173189578
 H         -4.4946343697        3.1602334361        2.7121345571
 H         -3.2191512005        1.9390844840        2.8034007663
 C         -4.7383003170        1.5122305659        1.3565064246
 H         -5.5464008245        2.0385075473        0.8493254322
 H         -5.1703924892        0.8159333695        2.0791809644
 H         -3.9302431164        4.3882437584       -1.9549534880
 H         -2.5074460120        3.4527993900       -1.4916492800
 H         -4.3464503913        2.1572873796       -2.6119145517
 H         -5.3772536233        2.4599265733       -1.2016231687
 O         -2.9718796158        0.4247999685       -1.7692201604
 C         -2.2849786877       -0.7184412459       -1.3853854571
 O         -1.5879199857       -1.2038301353       -2.3002682574
 O         -3.4682787074       -0.9129942198        2.0293568499
 C         -1.7166276003       -2.4170601546        0.4245018650
 C         -0.2989739436       -2.0065244900        0.7419683636
 C          0.0838505736       -1.7469025731        2.0535269507
 C          1.3558837201       -1.2834749541        2.3391400862
 C          2.2664814904       -1.0552510495        1.3225558703
 C          1.8886747317       -1.3006258233        0.0093930401
 C          0.6237593763       -1.7920147368       -0.2723973309
 H          0.3330534531       -1.9542082818       -1.2994802124
 N          2.7969972644       -1.0172198047       -1.0360632382
 S          3.1582155606        0.6213021424       -1.2053085635
 O          2.0725095721        1.4534952541       -0.7358333838
 O          3.5530947695        0.7933272789       -2.5866433278
 C          4.5873349494        0.8386060060       -0.1648000113
 C          5.7275221146        0.1201654973       -0.4683768442
 C          6.8484274871        0.2751183874        0.3314180244
 C          6.8111857688        1.1424926829        1.4133162401
 C          5.6599662881        1.8590053554        1.7026283944
 C          4.5346306116        1.7077309598        0.9070929261
 H          3.6150271963        2.2384696518        1.0955741886
 H          5.6325959082        2.5330958020        2.5436737779
 H          7.6846605749        1.2612774699        2.0347661872
 H          7.7456393587       -0.2797840115        0.1094391809
 H          5.7137165775       -0.5378455260       -1.3210567070
 H          2.4744429425       -1.3695234583       -1.9277860650
 H          3.2548356952       -0.6810085762        1.5346951618
 H          1.6384126045       -1.0889192910        3.3624940756
 H         -0.6359492489       -1.8889569467        2.8467930055
 H         -2.2111264349       -2.6798317823        1.3691011442
 C         -1.7929222288       -3.6086203051       -0.5065154106
 C         -1.4604644473       -4.9678116646        0.0302346657
 C         -2.8784320804       -4.6222517123       -0.3090656180
 H         -3.3263563058       -5.0715745211       -1.1826531161
 H         -3.5728368004       -4.4597542181        0.5021778519
 H         -0.9319419014       -5.6583612401       -0.6087482628
 H         -1.1924313931       -5.0391845613        1.0734100941
 H         -1.5089850973       -3.3848993260       -1.5264497565
