  62
        -98.93753807
 C         -1.7002066400       -1.3367753430       -0.0188271305
 C         -2.9202332052       -1.0503034489        0.6372517065
 C         -3.7569221248       -0.0094890401        0.0243239520
 C         -3.3376240414        0.6065125642       -1.0957031220
 C         -4.0876358692        1.6448569753       -1.8882081526
 C         -4.3515157737        2.9894597446       -1.1835219981
 C         -5.7108434126        3.0786925619       -0.4786297227
 H         -6.1270999864        4.0745173160       -0.6436340677
 H         -6.3964615881        2.3714585474       -0.9469888932
 C         -5.6935166992        2.8474885930        1.0354501776
 H         -5.3275106622        3.7501288000        1.5303804879
 H         -6.7235765029        2.6890393912        1.3619498624
 C         -4.8356139459        1.6791346717        1.5213422871
 H         -5.0626578583        1.5041962455        2.5749809866
 H         -3.7793317832        1.9564942648        1.4768281059
 C         -5.0256468289        0.3699065608        0.7309827875
 H         -5.8462312695        0.4649282957        0.0213392654
 H         -5.2564707127       -0.4476679051        1.4170223242
 H         -4.3172391565        3.7613772074       -1.9540703678
 H         -3.5438821759        3.1997364083       -0.4824574027
 H         -3.4813319636        1.8235893813       -2.7786431538
 H         -5.0381136259        1.2155247079       -2.2134402611
 O         -2.1483468813        0.3114711796       -1.6886248523
 C         -1.3010909055       -0.6622310494       -1.1731840740
 O         -0.2494947396       -0.8168444582       -1.8187235331
 O         -3.2973739168       -1.6424618225        1.6849151853
 C         -0.8067107641       -2.4243441369        0.5437175625
 C          0.5847169983       -1.9263956563        0.8523336695
 C          1.6921484029       -2.7669195118        0.8154153493
 C          2.9536669100       -2.2875384344        1.1220561902
 C          3.1462919974       -0.9585361983        1.4514643574
 C          2.0493480507       -0.1071733602        1.4761418438
 C          0.7815212903       -0.5979280698        1.2017764789
 H         -0.0673857550        0.0737923048        1.2383546787
 N          2.2382566135        1.2565133176        1.7551623824
 S          3.5350695822        2.0252573222        1.0237596943
 O          4.7039106142        1.8797825110        1.8571564010
 O          3.0922673452        3.3860798221        0.8071654291
 C          3.8153636600        1.1965444207       -0.5331540517
 C          2.7459714221        0.9543540986       -1.3713948444
 C          2.9663591112        0.2901356495       -2.5667407132
 C          4.2497328015       -0.1050177827       -2.9106162459
 C          5.3169933097        0.1591578118       -2.0658401208
 C          5.0994951288        0.8100245071       -0.8623903597
 H          5.8961860070        1.0185480731       -0.1667340777
 H          6.3145154804       -0.1477722180       -2.3362426748
 H          4.4158595929       -0.6246353094       -3.8410702017
 H          2.1228254730        0.0693423259       -3.2009760301
 H          1.7493339915        1.2574285043       -1.0924233750
 H          1.3988785241        1.8108221999        1.6721331650
 H          4.1222691816       -0.5657120523        1.6873102932
 H          3.8005899231       -2.9554991310        1.0958661029
 H          1.5648082878       -3.8021452145        0.5449368185
 H         -1.2782320025       -2.7263056106        1.4917384778
 C         -0.8006350936       -3.6174546413       -0.3940115126
 C         -0.7664727065       -5.0161522797        0.1434573508
 C         -2.0238441094       -4.4799712681       -0.4696090589
 H         -2.3336501678       -4.8547893927       -1.4335656579
 H         -2.8459758240       -4.2284417504        0.1847616242
 H         -0.2118706645       -5.7645198322       -0.4024362564
 H         -0.7443951449       -5.1422661855        1.2155079858
 H         -0.2767293720       -3.4109495164       -1.3206119738
