  62
        -98.93214855
 C          2.5231221314        1.1382884541        0.4993157748
 C          3.3838375142        0.8301149217       -0.5809015709
 C          4.5474065136       -0.0255725658       -0.2686215853
 C          4.7235756639       -0.4860037158        0.9827829667
 C          5.8179354319       -1.3403395474        1.5881009259
 C          6.7825683515       -2.1215226770        0.6993388591
 C          6.1422574715       -3.2552938916       -0.1007065854
 H          5.8350559614       -4.0409860736        0.5941452954
 H          6.9022186198       -3.6759019087       -0.7629381110
 C          4.9195707748       -2.8698987677       -0.9297987187
 H          4.1125280816       -2.5496941069       -0.2674721620
 H          4.5716789441       -3.7673630128       -1.4485465654
 C          5.1572766481       -1.7881821210       -1.9817031397
 H          4.2587776091       -1.7302165495       -2.6017748514
 H          5.9896846359       -2.0779331101       -2.6259072436
 C          5.4300241634       -0.3772023449       -1.4316375358
 H          5.1978568596        0.3426748301       -2.2218776700
 H          6.4775854153       -0.2487975896       -1.1701990392
 H          7.5258833949       -2.5675484598        1.3658841934
 H          7.3184732698       -1.4459506511        0.0391479768
 H          5.3098031865       -2.0364434313        2.2630128873
 H          6.4030613671       -0.6672391909        2.2246482284
 O          3.8609538531       -0.1647191079        1.9923854431
 C          2.7566732191        0.6369091719        1.7810568625
 O          2.0667798366        0.8363322993        2.8021140421
 O          3.2160409411        1.2412074233       -1.7566976134
 C          1.2852107748        2.0089500551        0.3595942706
 C          0.0954020671        1.1751124851       -0.0410905783
 C          0.1294684794        0.3604425911       -1.1688286055
 C         -0.9738986823       -0.3959137850       -1.5190189632
 C         -2.1268411316       -0.3628094758       -0.7536425686
 C         -2.1707162644        0.4436840050        0.3750792502
 C         -1.0629187203        1.2077275738        0.7209662061
 H         -1.0970743299        1.8264036271        1.6081349536
 N         -3.3317110192        0.4672791656        1.1649546796
 S         -4.8112852428        0.7174822897        0.4112378790
 O         -4.6572395020        1.4825272517       -0.8039887207
 O         -5.6607739110        1.2915265244        1.4314218672
 C         -5.3857188034       -0.9245899706        0.0338831157
 C         -5.6903406071       -1.2655119590       -1.2693170234
 C         -6.1436629686       -2.5477441293       -1.5379787343
 C         -6.2848697085       -3.4605163281       -0.5040042350
 C         -5.9776834443       -3.1012080784        0.8000251347
 C         -5.5247219737       -1.8209703341        1.0753276035
 H         -5.2798140733       -1.5014701169        2.0746011428
 H         -6.0894491114       -3.8136442204        1.6014828775
 H         -6.6370604861       -4.4578286784       -0.7153896525
 H         -6.3840584244       -2.8288110679       -2.5507698418
 H         -5.5618674770       -0.5239383387       -2.0417881662
 H         -3.2497842348        1.0329129580        1.9972865325
 H         -2.9872453416       -0.9536617790       -1.0220843126
 H         -0.9354051706       -1.0220945803       -2.3975422167
 H          1.0277411931        0.3327771683       -1.7666690374
 H          1.0921127396        2.3912834063        1.3747791024
 C          1.5018510601        3.2194548436       -0.5387192431
 C          0.8394351608        3.4075731032       -1.8668523552
 C          0.4078821344        4.2345772365       -0.6957185439
 H          0.6639081649        5.2830312939       -0.6729988083
 H         -0.5503534318        4.0048718252       -0.2524761794
 H          1.4179878129        3.8735782342       -2.6496851515
 H          0.1678126541        2.6417555501       -2.2209501344
 H          2.5112241841        3.6082808804       -0.4509349968
