  62
        -98.94282457
 C         -1.5099397713       -1.2787637688        0.6734114407
 C         -1.9337171703       -0.8926208592       -0.6226632397
 C         -2.6783943793        0.3715233913       -0.6982763309
 C         -2.8981646494        1.0928272921        0.4148540385
 C         -3.6800089785        2.3755813827        0.4982194173
 C         -2.8614059473        3.6289786119        0.1627616671
 C         -2.4961815763        3.7955196108       -1.3126093328
 H         -3.3989439960        3.7210797611       -1.9197493833
 H         -2.1060179255        4.8076156204       -1.4337018832
 C         -1.4466321068        2.7981116297       -1.8233786716
 H         -0.9295923376        2.3426101098       -0.9755869710
 H         -0.6915768960        3.3291264688       -2.4064792515
 C         -2.0083011771        1.6897599096       -2.7139477313
 H         -1.1885123174        1.0193721888       -2.9852484904
 H         -2.4086064562        2.1231403294       -3.6332346318
 C         -3.1073902181        0.8476613108       -2.0529708214
 H         -4.0316130177        1.4208212316       -1.9825904423
 H         -3.2864588184       -0.0324489094       -2.6753902610
 H         -3.4523393968        4.4951643326        0.4691813662
 H         -1.9502037277        3.6127100116        0.7621306376
 H         -4.5479439881        2.3161023030       -0.1591310131
 H         -4.0308754690        2.4594730636        1.5291783371
 O         -2.4333900704        0.7109624825        1.6349231890
 C         -1.7083663914       -0.4600460880        1.7872672602
 O         -1.2979407222       -0.6571728376        2.9495373405
 O         -1.7174410502       -1.5595705900       -1.6661944292
 C         -0.7073991224       -2.5485087193        0.8961663020
 C          0.4011708281       -2.6272427207       -0.1251481273
 C          0.5881888378       -3.6917204814       -0.9956550566
 C          1.6406471484       -3.6785759827       -1.8947970360
 C          2.5347848892       -2.6247828234       -1.9281416161
 C          2.3562588295       -1.5534723827       -1.0590852368
 C          1.2893752290       -1.5597257014       -0.1780394574
 H          1.1447608692       -0.7225058709        0.4891085520
 N          3.2357766003       -0.4608605034       -1.0673673869
 S          3.6600490401        0.3046129771        0.3588768029
 O          4.9709402806        0.8580068660        0.0907549133
 O          3.5646625387       -0.5855449122        1.4912984433
 C          2.5128411810        1.6572974581        0.5161848314
 C          1.6086705904        1.6918199794        1.5583447009
 C          0.7713666412        2.7896629901        1.6846701197
 C          0.8584527825        3.8326343695        0.7756085092
 C          1.7671605231        3.7801660782       -0.2708398603
 C          2.6021646423        2.6838414375       -0.4042985891
 H          3.3329630827        2.6114889264       -1.1923917987
 H          1.8273826641        4.5922377677       -0.9770252107
 H          0.2180434831        4.6938399300        0.8848478183
 H          0.0578549807        2.8158833911        2.4942369393
 H          1.5688853294        0.8698283598        2.2578270213
 H          4.0230859706       -0.5528004844       -1.6922601764
 H          3.3600500096       -2.6226335144       -2.6241109756
 H          1.7706415481       -4.5063161132       -2.5756270154
 H         -0.1013644828       -4.5197217308       -0.9878257165
 H         -0.2307238329       -2.4149667191        1.8826153022
 C         -1.5419582434       -3.8164800386        0.9920759022
 C         -2.9599303037       -3.7691164572        1.4764971313
 C         -2.6667519131       -4.1169611683        0.0494994217
 H         -2.8089054337       -5.1406255284       -0.2651922278
 H         -2.8842538221       -3.3899281686       -0.7159934288
 H         -3.3013771347       -4.5494749966        2.1400946616
 H         -3.3817427631       -2.7977708968        1.6916078805
 H         -0.9500760743       -4.6621258788        1.3298649731
