  62
        -98.94761009
 C          2.5306484397       -0.2850304108       -0.0097108364
 C          2.2229048940       -1.2974422942        0.9289184136
 C          1.5898389853       -2.5070908682        0.3899128413
 C          1.3610193694       -2.5945948562       -0.9330572605
 C          0.7216795952       -3.7684493182       -1.6172424260
 C         -0.7954624506       -3.5917694614       -1.7566513964
 C         -1.5014274116       -3.2025467041       -0.4575837601
 H         -1.2136938840       -2.1838935480       -0.1862911945
 H         -2.5736682040       -3.1781500639       -0.6683285960
 C         -1.2365384740       -4.1399458816        0.7282457131
 H         -2.1819027573       -4.3190729631        1.2444906186
 H         -0.8729323783       -5.1034745880        0.3679452600
 C         -0.2629248827       -3.5818828088        1.7685503649
 H         -0.5513784830       -2.5563844738        2.0172639291
 H         -0.3552715260       -4.1808094501        2.6788957348
 C          1.2178805895       -3.5871990439        1.3658632644
 H          1.4919393223       -4.5714808256        0.9793143304
 H          1.8101492958       -3.3932595890        2.2651292592
 H         -0.9861497957       -2.8032910220       -2.4884286638
 H         -1.2156787758       -4.5252520151       -2.1370873003
 H          1.1582855295       -3.8586408240       -2.6138100762
 H          0.9420750111       -4.6719475913       -1.0514044369
 O          1.6842050132       -1.6080543261       -1.8076690310
 C          2.2260145167       -0.4117500839       -1.3649815825
 O          2.4134322274        0.4312154542       -2.2640695415
 O          2.4740353417       -1.1947932273        2.1620088666
 C          3.0883862434        1.0363771580        0.4915328866
 C          2.0624377437        2.1144464816        0.2374214050
 C          2.3526457735        3.3578460070       -0.3079541149
 C          1.3346201419        4.2617152916       -0.5631625266
 C          0.0145321649        3.9408935585       -0.3046122377
 C         -0.2824876389        2.7054667992        0.2600662383
 C          0.7418433025        1.8228439216        0.5524960067
 H          0.4993285381        0.8686502540        0.9973488379
 N         -1.6058872443        2.3191816968        0.5449952577
 S         -1.9690726057        0.6873659224        0.2639271342
 O         -1.6316137422       -0.0692715357        1.4437353718
 O         -1.3742359796        0.2567203890       -0.9801826891
 C         -3.7433315078        0.7705832193        0.1050167839
 C         -4.3068280996        0.8379112265       -1.1550122547
 C         -5.6848393695        0.9357168516       -1.2689807206
 C         -6.4709576140        0.9684797991       -0.1269398738
 C         -5.8909236845        0.8988391477        1.1311108121
 C         -4.5139429464        0.7990165857        1.2519619687
 H         -4.0178713556        0.7317260657        2.2060983521
 H         -6.5053271291        0.9209547134        2.0165788434
 H         -7.5428000587        1.0452329899       -0.2184374794
 H         -6.1380970937        0.9854735705       -2.2458775621
 H         -3.6547450188        0.7998702043       -2.0131915579
 H         -2.2894958771        2.9273742821        0.1138931532
 H         -0.7785620062        4.6349587369       -0.5380714034
 H          1.5719546567        5.2228589061       -0.9936762928
 H          3.3717492131        3.6132013779       -0.5484610776
 H          3.1975841224        0.9134819868        1.5799915803
 C          4.4458802085        1.3306173089       -0.1082043568
 C          5.4372119388        2.1653239324        0.6449801589
 C          5.6585550225        0.6910181139        0.4965505783
 H          6.4421558877        0.3479175801       -0.1619421094
 H          5.5057968465        0.0594819498        1.3596623101
 H          6.0745234077        2.8357429639        0.0885466038
 H          5.1423061281        2.5370303110        1.6146228274
 H          4.4117874493        1.4195106625       -1.1880373801
