  62
        -98.94946539
 C         -2.0600448934        0.2679685288        0.3148950423
 C         -1.4514957378        1.2215987974        1.1636883124
 C         -1.1613402590        2.5267534823        0.5592594936
 C         -1.4310097225        2.7312621777       -0.7430528055
 C         -1.1956416496        4.0065269330       -1.5064222399
 C          0.2454120364        4.1678576130       -2.0095034262
 C          1.2677028322        4.5445183180       -0.9366291977
 H          2.1752547636        4.8584345807       -1.4562500897
 H          0.9010829699        5.4019017812       -0.3702963113
 C          1.6233934566        3.4010798837        0.0235396628
 H          1.3346674494        2.4484225314       -0.4286502596
 H          2.7075008371        3.3665176487        0.1604812931
 C          0.9961410514        3.5235952649        1.4122979262
 H          1.3042823892        2.6596612171        2.0049108382
 H          1.3797916681        4.4200051945        1.9052288403
 C         -0.5368266583        3.5859479603        1.4192746007
 H         -0.8707844515        4.5717982196        1.0952223219
 H         -0.8797641001        3.4207974703        2.4440467619
 H          0.5538315922        3.2356996149       -2.4903418306
 H          0.2409942072        4.9519208112       -2.7706460915
 H         -1.4657406175        4.8634683133       -0.8880484312
 H         -1.8620894489        3.9768570005       -2.3712264762
 O         -1.9895083075        1.7789818321       -1.5348617147
 C         -2.3079260297        0.5266217728       -1.0335227256
 O         -2.8126770790       -0.2470042367       -1.8706326071
 O         -1.1663754676        0.9953695331        2.3714620757
 C         -2.3886850288       -1.1130616023        0.8575552986
 C         -1.6666368337       -2.1495055467        0.0318184076
 C         -2.2637245570       -3.2884813657       -0.4897779963
 C         -1.5381946248       -4.1408557155       -1.3054655279
 C         -0.2220854795       -3.8697602715       -1.6298148686
 C          0.3910971514       -2.7409143690       -1.0942279393
 C         -0.3244269437       -1.9198398242       -0.2416161043
 H          0.1469911866       -1.0426637555        0.1693607192
 N          1.7246646998       -2.4372684364       -1.3906763284
 S          2.3749598833       -0.9046407570       -1.2437871316
 O          1.4114805250        0.1418792724       -1.4899912243
 O          3.5245530147       -0.9307155221       -2.1240458426
 C          2.9503495400       -0.8830123828        0.4415986968
 C          2.3135759531       -0.1253470589        1.4020515947
 C          2.7776518232       -0.1650023180        2.7077461688
 C          3.8680619633       -0.9572349425        3.0297037978
 C          4.5029361777       -1.7095638036        2.0523432105
 C          4.0407517262       -1.6751884668        0.7473766085
 H          4.5090391671       -2.2361724684       -0.0441186841
 H          5.3527269914       -2.3229537576        2.3049401443
 H          4.2239230062       -0.9859963685        4.0474654887
 H          2.2741872959        0.4186055881        3.4625083743
 H          1.4648562242        0.4821481038        1.1278536323
 H          2.1403421665       -2.9705516500       -2.1384549895
 H          0.3267120772       -4.5170934149       -2.2966043596
 H         -2.0139974079       -5.0192427617       -1.7149144954
 H         -3.2991041653       -3.4995328331       -0.2781303944
 H         -1.9860115060       -1.1333963062        1.8812287286
 C         -3.8871037852       -1.3208295917        0.9159727714
 C         -4.4827220116       -2.2448778925        1.9348722108
 C         -4.6521711590       -0.7630220711        2.0772896262
 H         -5.6251626628       -0.3324340287        1.8941335707
 H         -4.0862429907       -0.2520770575        2.8423890876
 H         -5.3440345804       -2.8330681320        1.6563993186
 H         -3.8064128266       -2.7440769844        2.6118870175
 H         -4.3510557971       -1.2654309365       -0.0627243569
