  62
        -98.94379383
 C         -1.6434898159       -1.4229450045        0.4028760235
 C         -1.7699397925       -0.1772073974        1.0739081664
 C         -3.0432105570        0.5296176548        0.9038434271
 C         -4.0256941502       -0.0364246971        0.1804763020
 C         -5.4015113363        0.5299659856       -0.0446780761
 C         -5.4846534813        1.5374303985       -1.1994192063
 C         -4.8384630860        2.8955315064       -0.9236121225
 H         -5.2255780568        3.2966539939        0.0135694144
 H         -5.1560942227        3.5692930744       -1.7218953963
 C         -3.3042562261        2.8667774551       -0.8812446851
 H         -2.9088142558        3.6974848294       -1.4696839180
 H         -2.9444143426        1.9463557706       -1.3469789507
 C         -2.7032293752        2.9777540321        0.5200669416
 H         -2.9370948624        3.9572934168        0.9429221977
 H         -1.6180794849        2.8933299289        0.4287579274
 C         -3.1785707805        1.8976221794        1.5005473048
 H         -4.2104669854        2.0838854573        1.7978549901
 H         -2.5459940893        1.9356156011        2.3907501059
 H         -6.5435175047        1.6985877993       -1.4149740530
 H         -5.0295195699        1.0904221630       -2.0862828172
 H         -5.7588739433        0.9971036779        0.8736176075
 H         -6.0507196314       -0.3165095000       -0.2791417814
 O         -3.8770333054       -1.2406940004       -0.4279335783
 C         -2.6805629859       -1.9448315417       -0.3708243086
 O         -2.6989025022       -2.9958271630       -1.0418000253
 O         -0.8608128248        0.3147051069        1.7929967504
 C         -0.3164457963       -2.1417270330        0.5698317345
 C          0.6329662717       -1.8315294647       -0.5631636821
 C          0.2965711047       -2.0985704064       -1.8861140593
 C          1.1911339258       -1.8185987463       -2.9025927895
 C          2.4298007266       -1.2681653324       -2.6231429730
 C          2.7784440717       -1.0036339483       -1.3034730960
 C          1.8775112488       -1.2856364212       -0.2851337395
 H          2.1611631205       -1.0836541323        0.7357543315
 N          4.0398377474       -0.4815081500       -0.9957423870
 S          4.3174097869        0.4821053774        0.3365220043
 O          5.6153152392        1.0663049187        0.0765840005
 O          4.2063481322       -0.2955601794        1.5448070098
 C          3.0731593433        1.7578139601        0.2906277528
 C          3.1071270126        2.6527673699       -0.7618183234
 C          2.1581327803        3.6593521381       -0.8162272774
 C          1.1962294873        3.7557598043        0.1788249071
 C          1.1780837727        2.8527864168        1.2296685306
 C          2.1236249231        1.8414187076        1.2867279204
 H          2.1260835077        1.1211513193        2.0884036528
 H          0.4269378354        2.9118074999        2.0006974752
 H          0.4584573220        4.5420532549        0.1366643075
 H          2.1696686992        4.3661925618       -1.6303106410
 H          3.8799905556        2.5592224310       -1.5073514782
 H          4.6050478007       -0.2165890041       -1.7879419864
 H          3.1263368457       -1.0531533852       -3.4188481845
 H          0.9202681584       -2.0298537698       -3.9261276471
 H         -0.6691108407       -2.5272059982       -2.1067190786
 H          0.1226508639       -1.7251318379        1.4871515800
 C         -0.4434898697       -3.6425679820        0.7453522280
 C          0.6813619946       -4.3915375797        1.3920897334
 C         -0.6160453254       -4.2100361364        2.1205490541
 H         -1.2631822776       -5.0649346142        2.2470321018
 H         -0.6424354995       -3.5168606873        2.9489419149
 H          0.9278192059       -5.3733550428        1.0179645816
 H          1.5365430305       -3.8224594181        1.7261492796
 H         -0.9733303958       -4.1282642113       -0.0634321684
