  62
        -98.93688874
 C          2.4190588825        1.1333861056        0.2164441125
 C          2.5100869093       -0.0265506733       -0.5922997513
 C          3.8741641346       -0.4634518771       -0.9255471031
 C          4.9343415334        0.2319817686       -0.4781711546
 C          6.3805072489       -0.0743862027       -0.7586420186
 C          6.9889489823       -1.1240949817        0.1814100159
 C          6.5173600008       -2.5595992302       -0.0540633924
 H          6.6434336421       -2.8142230243       -1.1067820460
 H          7.1782157012       -3.2116425470        0.5205042809
 C          5.0671443483       -2.8279878723        0.3722558893
 H          4.7295658354       -2.0312506631        1.0391623265
 H          5.0206477419       -3.7601932162        0.9396449403
 C          4.0777047334       -2.9540312217       -0.7863821898
 H          3.0777100517       -3.0998403038       -0.3695708090
 H          4.3253168217       -3.8328435019       -1.3859197398
 C          4.0286859936       -1.7306625773       -1.7109845449
 H          4.9245546844       -1.6892930425       -2.3301861013
 H          3.1557600688       -1.8274266606       -2.3612766917
 H          8.0725019698       -1.0932167074        0.0459636742
 H          6.7746141243       -0.8345535582        1.2127573704
 H          6.4918604293       -0.4013191955       -1.7927753663
 H          6.9270110581        0.8621768922       -0.6285206438
 O          4.8042526009        1.3416592510        0.2974724623
 C          3.5553241572        1.7967524517        0.6871406784
 O          3.5877431307        2.7867530427        1.4454702182
 O          1.5200023362       -0.6722915609       -1.0217376800
 C          1.0796343489        1.6883880550        0.6679852238
 C          0.1684035854        0.5693930275        1.1092792468
 C          0.5701502833       -0.2383691367        2.1708274480
 C         -0.2329009047       -1.2681931577        2.6193611284
 C         -1.4660311493       -1.5007044943        2.0355158376
 C         -1.8744326540       -0.7031653304        0.9740049302
 C         -1.0574844941        0.3209006809        0.5149361012
 H         -1.3926603500        0.9065720094       -0.3245326937
 N         -3.1090121455       -0.9246312070        0.3428751047
 S         -3.9673927305        0.4132202254       -0.2226719191
 O         -3.5159984476        0.7396614458       -1.5518209904
 O         -3.9135525560        1.4825768703        0.7494317907
 C         -5.6150803464       -0.2661610003       -0.3003813073
 C         -6.4945616781       -0.0325048946        0.7398960929
 C         -7.7633877138       -0.5875534311        0.6827768612
 C         -8.1282089993       -1.3651693332       -0.4059367967
 C         -7.2347622491       -1.5905308176       -1.4428101270
 C         -5.9651529151       -1.0373253601       -1.3928525146
 H         -5.2409285648       -1.1768071438       -2.1785922549
 H         -7.5228527966       -2.1932200405       -2.2889870485
 H         -9.1161247709       -1.7958652726       -0.4482955283
 H         -8.4612933977       -0.4111733094        1.4853289117
 H         -6.1697024491        0.5855480480        1.5614173905
 H         -3.7019151306       -1.5698988631        0.8463230155
 H         -2.0988704817       -2.3001267353        2.3902280407
 H          0.0974148940       -1.8897507762        3.4382977433
 H          1.5298135682       -0.0492761702        2.6340897023
 H          1.3086904139        2.2999718845        1.5576353751
 C          0.4239210321        2.6215646438       -0.3389641053
 C          1.2429186247        3.4524041269       -1.2796135857
 C          0.4066381817        2.3274548542       -1.8074840443
 H         -0.4898292234        2.5623714522       -2.3635724643
 H          0.8999550350        1.4282529112       -2.1412218654
 H          0.9271211845        4.4663797433       -1.4737471209
 H          2.3155815037        3.3253486079       -1.2549281712
 H         -0.4650157196        3.0949912637        0.0698720683
