  62
        -98.93359090
 C         -2.3471260521        0.4692172280        0.4670738537
 C         -3.5567095877        0.9963776297       -0.0422526668
 C         -4.5745675191        0.0285945677       -0.4945747439
 C         -4.2905092807       -1.2854833043       -0.4270251839
 C         -5.1704097732       -2.4501608114       -0.7961775212
 C         -6.2600935253       -2.7259423951        0.2524659171
 C         -6.9775800625       -1.4844501215        0.7756533807
 H         -7.6426619222       -1.8012378032        1.5833593019
 H         -6.2438741897       -0.8024001071        1.2090320646
 C         -7.8193241109       -0.7365017890       -0.2554364080
 H         -8.3420893689        0.0650219040        0.2727542424
 H         -8.5743886784       -1.4136614938       -0.6609963224
 C         -7.0501002340       -0.1121859410       -1.4216356579
 H         -7.7294657985        0.5820554045       -1.9249302890
 H         -6.7759164018       -0.8624950142       -2.1583692219
 C         -5.8235443511        0.6985699069       -1.0150265228
 H         -5.4989626987        1.2948858602       -1.8765348210
 H         -6.1137854551        1.4308769716       -0.2529727550
 H         -6.9875731265       -3.4151210325       -0.1796553054
 H         -5.7897969309       -3.2220739850        1.1049113261
 H         -5.6078169042       -2.2911969626       -1.7773198892
 H         -4.5199348502       -3.3252920389       -0.8601020776
 O         -3.1022384684       -1.7479607857        0.0551850892
 C         -2.1050659106       -0.9033355895        0.5069798570
 O         -1.0843872731       -1.4906208028        0.9131605823
 O         -3.7890179744        2.2338305906       -0.1139220194
 C         -1.2717009689        1.4404133133        0.9246471425
 C         -0.1279258618        1.3691518015       -0.0569659289
 C         -0.2628636793        2.0028137688       -1.2896821116
 C          0.7394063369        1.9235611448       -2.2374144713
 C          1.8932888222        1.2030858364       -1.9816057487
 C          2.0359387984        0.5642182532       -0.7575312648
 C          1.0350602032        0.6621815961        0.2025259170
 H          1.1531166031        0.1524826917        1.1456641009
 N          3.1854611298       -0.2034719521       -0.4996418743
 S          4.6813958627        0.4157682170       -0.9714032917
 O          4.8184153122        1.7865502463       -0.5306795664
 O          4.8444275435        0.1949305027       -2.3869434575
 C          5.7855161745       -0.6478986447       -0.0647848744
 C          6.3975775028       -0.1802187317        1.0821773309
 C          7.2359440139       -1.0292838175        1.7877148698
 C          7.4434181136       -2.3245978019        1.3384280578
 C          6.8210556914       -2.7796385164        0.1851784792
 C          5.9832448008       -1.9357075711       -0.5259725392
 H          5.4853375870       -2.2431498539       -1.4307448680
 H          6.9861581628       -3.7869997947       -0.1614991092
 H          8.0960033234       -2.9833900360        1.8893143177
 H          7.7231849798       -0.6780956471        2.6830306274
 H          6.2114207752        0.8361457159        1.3901826158
 H          3.2094453876       -0.5421909395        0.4522913045
 H          2.6825461946        1.1302664330       -2.7123915563
 H          0.6231708368        2.4240533901       -3.1872721832
 H         -1.1705701251        2.5531921574       -1.4960332489
 H         -1.7267585623        2.4369595114        0.8423445376
 C         -0.8674601163        1.2056320182        2.3643212017
 C         -0.0839822472        2.2590466337        3.0874203974
 C         -1.5172555705        2.0112280011        3.4474070664
 H         -1.7371604828        1.5272198250        4.3871562292
 H         -2.2532295493        2.7444031299        3.1516563398
 H          0.6814663190        1.9486377914        3.7821853715
 H          0.1554372147        3.1607514496        2.5440489045
 H         -0.6491010370        0.1676488815        2.5841451348
