  62
        -98.94214781
 C         -0.7065171820       -1.8537951807        0.0907431907
 C         -1.4597245944       -1.1308063663        1.0415550333
 C         -2.7069474396       -0.4999821630        0.5690423380
 C         -3.0618075750       -0.6568825482       -0.7197335220
 C         -4.2628012201       -0.0840042406       -1.4237505543
 C         -4.0929934985        1.4053946384       -1.7698121087
 C         -3.4467274186        2.2556819250       -0.6786733887
 H         -2.4665289902        1.8374283828       -0.4399257079
 H         -3.2621620096        3.2483418492       -1.0994040414
 C         -4.2732158819        2.4323406914        0.5932478521
 H         -5.2042217628        2.9451151284        0.3397519331
 H         -3.7056026151        3.0861441423        1.2608002935
 C         -4.6225037115        1.1532313441        1.3552170318
 H         -5.4026294704        0.5981797614        0.8416497350
 H         -5.0391035940        1.4553061085        2.3207396657
 C         -3.4360077863        0.2449865960        1.6614285862
 H         -2.6708688285        0.8282990198        2.1864733629
 H         -3.7599683173       -0.5196467821        2.3782722122
 H         -3.4526188471        1.4752541385       -2.6527869739
 H         -5.0712869209        1.8163755304       -2.0259971969
 H         -4.3784107013       -0.6441578782       -2.3543812045
 H         -5.1553555557       -0.2468623162       -0.8261698653
 O         -2.3094185969       -1.3741128612       -1.6019245198
 C         -1.1139275972       -1.9675216329       -1.2378221720
 O         -0.5288721054       -2.5625014204       -2.1636368211
 O         -1.1033788275       -1.0036362751        2.2450656219
 C          0.6110489527       -2.4687795607        0.5162474905
 C          1.7748062670       -1.8466997383       -0.2197476074
 C          2.9738624814       -2.5208244436       -0.4241230471
 C          4.0252474008       -1.8977694362       -1.0733900580
 C          3.9142739551       -0.5937191002       -1.5214247832
 C          2.7195928092        0.0891552331       -1.3228010802
 C          1.6703048426       -0.5394167252       -0.6715390864
 H          0.7404208254       -0.0081103795       -0.5481618588
 N          2.5538512532        1.4020328997       -1.7778091899
 S          1.4369461443        2.4359908604       -1.1016858118
 O          0.0965927027        2.0454193556       -1.4595602672
 O          1.8559577164        3.7449788480       -1.5574582828
 C          1.6777853308        2.3117824892        0.6608459791
 C          2.9145268865        2.6497204564        1.1750364487
 C          3.1292392279        2.5284405420        2.5379508337
 C          2.1117663843        2.0660663927        3.3594162126
 C          0.8735473580        1.7383067184        2.8300797149
 C          0.6527765481        1.8662395139        1.4684832565
 H         -0.2969015872        1.6109316424        1.0241077097
 H          0.0825080504        1.3590512844        3.4573274065
 H          2.2823585500        1.9602250736        4.4191421206
 H          4.0890829898        2.7872803333        2.9551012577
 H          3.6808464186        3.0088246498        0.5076825624
 H          3.3830858783        1.8673679722       -2.1122411438
 H          4.7343069627       -0.1119202396       -2.0308358859
 H          4.9480138830       -2.4349732529       -1.2311872062
 H          3.0804590842       -3.5369104556       -0.0808511310
 H          0.7173554306       -2.2160420441        1.5830853742
 C          0.5686444152       -3.9781481367        0.3783848208
 C          1.2695960408       -4.8566307074        1.3701933237
 C         -0.2259633767       -4.7705966313        1.3719155775
 H         -0.7967688802       -5.6165287489        1.0195199504
 H         -0.7062607319       -4.2219898011        2.1691083695
 H          1.7274331334       -5.7682117922        1.0164640784
 H          1.8009381604       -4.3771403250        2.1784222322
 H          0.5348137087       -4.2977596677       -0.6570724130
