  62
        -98.93833155
 C          2.4318972866        1.2157188871       -0.0769867115
 C          3.1700724421        0.4690308670        0.8684278486
 C          3.9821509191       -0.6417559457        0.3434483929
 C          3.9706500592       -0.9019201145       -0.9776663764
 C          4.7227410247       -1.9349704536       -1.7903058678
 C          5.3493621914       -3.1543933601       -1.1178806405
 C          4.3526650503       -4.1244784394       -0.4855263116
 H          3.7701335858       -4.5958175398       -1.2809895524
 H          4.9178523337       -4.9089641504        0.0224328549
 C          3.3671453824       -3.5062487441        0.5034627452
 H          2.7055255135       -2.8139401360       -0.0222293920
 H          2.7400426326       -4.3106463173        0.8981988933
 C          3.9993113110       -2.7838255586        1.6924445688
 H          4.7034101749       -3.4497041210        2.1947790229
 H          3.1976586476       -2.5521104433        2.3995395450
 C          4.7188490584       -1.4631819584        1.3615323890
 H          5.7438386620       -1.6380928467        1.0435383148
 H          4.7560679029       -0.8618255821        2.2745574505
 H          6.0898458858       -2.8446984706       -0.3863644916
 H          5.8855727615       -3.6976013264       -1.9007459309
 H          4.0206748126       -2.2721271091       -2.5592067808
 H          5.5135384068       -1.3862734002       -2.3136483922
 O          3.2362092819       -0.1544656155       -1.8522552055
 C          2.4437750474        0.9030269659       -1.4351752759
 O          1.8149149627        1.4649964125       -2.3502799159
 O          3.1518587117        0.7164962844        2.1057185130
 C          1.5590486496        2.3601707126        0.4019272102
 C          0.1089632918        2.0786572820        0.0893461260
 C         -0.7588528448        3.0299641480       -0.4299853734
 C         -2.0817835557        2.7085700568       -0.6818639241
 C         -2.5679491592        1.4405911482       -0.4237137789
 C         -1.7126119677        0.4841699285        0.1084252288
 C         -0.3909766314        0.8119594660        0.3671231019
 H          0.2725734086        0.0653100475        0.7874395482
 N         -2.1909838446       -0.8136331282        0.3622788495
 S         -3.5983309251       -0.9775963494        1.2640093547
 O         -3.7594081871        0.1143723609        2.1961553777
 O         -3.5269620789       -2.3045755791        1.8358803117
 C         -4.8955855496       -0.9383438743        0.0457923662
 C         -5.9358782261       -0.0393792529        0.1765889568
 C         -6.9396281633       -0.0329856912       -0.7795857574
 C         -6.8855239754       -0.9210327948       -1.8429151304
 C         -5.8350114841       -1.8194468480       -1.9580532801
 C         -4.8292244096       -1.8321403884       -1.0050134593
 H         -3.9974076230       -2.5147869282       -1.0567932231
 H         -5.7958866610       -2.5082140384       -2.7865726299
 H         -7.6664414906       -0.9132484737       -2.5868223470
 H         -7.7570639458        0.6644639171       -0.6919470553
 H         -5.9316632592        0.6368789154        1.0164792454
 H         -1.4808831336       -1.4477365391        0.6988292505
 H         -3.5948728429        1.1853234639       -0.6276218570
 H         -2.7430653808        3.4568159038       -1.0912154153
 H         -0.3988937931        4.0230955429       -0.6421780679
 H          1.6708961547        2.3750383274        1.4970286354
 C          2.0561964566        3.6773314592       -0.1552877938
 C          1.8595100540        4.9477698493        0.6150535231
 C          3.2259317932        4.3435733532        0.5028096854
 H          3.9592193248        4.8323937166       -0.1207659326
 H          3.6462254802        3.8602227577        1.3728878390
 H          1.6567451010        5.8562482013        0.0682618211
 H          1.3539132946        4.8826360386        1.5667605256
 H          2.0008838746        3.7173896054       -1.2372348432
