  62
        -98.93549273
 C         -2.2935475648        0.3310961780       -0.5957851724
 C         -3.3693570293        0.7340339337        0.2335983726
 C         -4.2882716508       -0.3385959028        0.6449497928
 C         -4.0440037507       -1.6121864211        0.2907792695
 C         -4.8715209376       -2.8123276578        0.6633984588
 C         -6.0800262887       -3.0464061664       -0.2535676365
 C         -7.2325295248       -2.0568877969       -0.0768622904
 H         -8.0897260933       -2.4642503344       -0.6166415672
 H         -7.5064118349       -2.0051136627        0.9773182155
 C         -6.9421102468       -0.6452266746       -0.6053176661
 H         -6.0828449888       -0.6786538816       -1.2791771649
 H         -7.7944625361       -0.2932690511       -1.1907920003
 C         -6.6779000214        0.3965850185        0.4818143105
 H         -7.5784932823        0.5339622631        1.0842901069
 H         -6.4493175828        1.3486799281       -0.0037548399
 C         -5.5125588078        0.0504906051        1.4178937722
 H         -5.2664459229        0.9396727196        2.0033576315
 H         -5.8019909927       -0.7484286207        2.1001444299
 H         -5.7391681728       -3.0280950367       -1.2913555789
 H         -6.4564180366       -4.0506022597       -0.0453435214
 H         -4.2105611160       -3.6788369648        0.5911216782
 H         -5.2089571552       -2.7188479923        1.6960677392
 O         -2.9647112377       -1.9667931532       -0.4578459083
 C         -2.0838312386       -1.0097615088       -0.9294171648
 O         -1.1605364790       -1.4680466001       -1.6340664726
 O         -3.5712261562        1.9127664216        0.6200205630
 C         -1.2591097964        1.3004336303       -1.1468283324
 C         -0.1277599913        1.4212295038       -0.1586464216
 C         -0.3519498061        1.8724395567        1.1389237669
 C          0.6900179915        1.9365266690        2.0452460711
 C          1.9692372926        1.5486659371        1.6841414449
 C          2.1987585448        1.0787090464        0.3984502649
 C          1.1520337972        1.0241006983       -0.5141558454
 H          1.3292662423        0.6422405231       -1.5108575493
 N          3.4971718563        0.6822480116        0.0139138969
 S          4.2967274884       -0.4085304956        1.0304389080
 O          3.4762854336       -1.5796372983        1.2518493778
 O          4.7224757245        0.2963762473        2.2128904056
 C          5.7119490640       -0.8140603142        0.0271598669
 C          5.6714103410       -1.9368840153       -0.7773067820
 C          6.7660099997       -2.2282577771       -1.5762484873
 C          7.8740614702       -1.3944411243       -1.5594618927
 C          7.8993402549       -0.2707946102       -0.7466854063
 C          6.8090222173        0.0257112489        0.0554780281
 H          6.7863694437        0.8818699456        0.7089699387
 H          8.7637394767        0.3732704533       -0.7353554532
 H          8.7241416286       -1.6242483425       -2.1822106932
 H          6.7495437604       -3.1024415133       -2.2071436081
 H          4.7924440565       -2.5616945158       -0.7525154590
 H          3.4998970777        0.3142189312       -0.9291314157
 H          2.7836295666        1.5819590496        2.3891068377
 H          0.5055558512        2.2896296531        3.0490018089
 H         -1.3517364661        2.1613782700        1.4266406938
 H         -0.8595426194        0.8082948575       -2.0475507861
 C         -1.8514051294        2.6337463347       -1.5820706646
 C         -1.4635487956        3.9519311447       -0.9884511926
 C         -1.0069649919        3.5933612906       -2.3681711770
 H         -1.4466898151        4.1009881729       -3.2132684292
 H          0.0352291087        3.3410113249       -2.4966081523
 H         -2.2401231923        4.6925150083       -0.8725268470
 H         -0.7294587744        3.9645957433       -0.1985075534
 H         -2.8865084297        2.5373695896       -1.8911689118
