  62
        -98.93628765
 C          1.8375866296        1.2111684201       -0.0767002107
 C          3.0049778397        1.1393935503        0.7239104892
 C          4.1885748496        0.4719863900        0.1497460994
 C          4.1067480695       -0.0184401805       -1.1005510504
 C          5.1568857994       -0.7598040709       -1.8840387102
 C          5.3158852493       -2.2190468307       -1.4271157396
 C          5.3317119593       -2.4206139302        0.0860153404
 H          4.4093455294       -2.0202703499        0.5113168803
 H          5.3347219493       -3.4970563201        0.2774027109
 C          6.5309078094       -1.8143654500        0.8110867301
 H          6.4557230695       -2.1071364196        1.8614981902
 H          7.4488824294       -2.2502142302        0.4103895202
 C          6.6505091196       -0.2900685800        0.7508547095
 H          7.3936698596        0.0067402502        1.4967596194
 H          7.0342196195        0.0352430196       -0.2124237406
 C          5.3689885096        0.4645372902        1.0906079693
 H          4.9853542197        0.1053946906        2.0524498895
 H          5.6195177197        1.5192034803        1.2575437189
 H          6.2347343192       -2.6184124710       -1.8596994495
 H          4.4768853492       -2.7922910008       -1.8293880394
 H          4.8317753993       -0.7556154213       -2.9268726002
 H          6.1041628494       -0.2315026410       -1.8307300305
 O          2.9652505594        0.0728328693       -1.8376972804
 C          1.8086786995        0.6692016296       -1.3614627105
 O          0.8635012595        0.6380286193       -2.1723718505
 H         -0.4444816105       -0.3036918799       -0.5806018100
 C         -0.7972968605       -0.1472635395        0.4282577099
 C         -0.3324120203        0.9435958007        1.1505054995
 C         -0.8015215202        1.1308211512        2.4453910495
 C         -1.7095342303        0.2463645015        3.0022295499
 C         -2.1715378004       -0.8382323587        2.2786059803
 C         -1.7105733905       -1.0324963692        0.9826078303
 N         -2.1839396706       -2.1260830395        0.2284842208
 S         -3.8424636406       -2.2144364294       -0.0028492791
 O         -4.4689035506       -2.5976262289        1.2372903211
 O         -4.0301304408       -3.1138984899       -1.1177951787
 C         -4.3269379405       -0.5574546596       -0.4464823797
 C         -4.7352742304        0.3204480108        0.5377810100
 C         -5.0311644103        1.6276650207        0.1860050095
 C         -4.9170760504        2.0315530202       -1.1350742206
 C         -4.5124074305        1.1355936798       -2.1127932903
 C         -4.2062583406       -0.1704104501       -1.7663616498
 H         -3.8865874707       -0.8966180804       -2.4967754296
 H         -4.4241985105        1.4508536794       -3.1399935304
 H         -5.1425631103        3.0508059401       -1.4050052310
 H         -5.3457589502        2.3269333510        0.9435885393
 H         -4.8200800904       -0.0342470188        1.5514321102
 H         -1.7139696307       -2.2181953399       -0.6613008292
 H         -2.8820311904       -1.5355135685        2.6924243506
 H         -2.0602653202        0.4015610820        4.0110422998
 H         -0.4392726301        1.9700074514        3.0207969991
 C          0.6379320397        1.9162767304        0.5317109191
 H          1.0618553098        2.5208325207        1.3489197088
 C         -0.0367819603        2.8804514501       -0.4358135813
 C         -1.3578843503        2.6216605799       -1.0883468011
 C         -1.2499984202        3.6531809003       -0.0085661815
 H         -1.3185814201        4.6963758002       -0.2760454219
 H         -1.6774462401        3.4108629307        0.9525040986
 H         -1.4793001904        2.9437185096       -2.1109578612
 H         -1.8705314704        1.6999572901       -0.8638664807
 H          0.6940937498        3.4148633598       -1.0351788215
 O          3.0627791498        1.6213843807        1.8875680090
