  62
        -98.93763111
 C         -2.6376138761       -1.1176675026        0.2065350222
 C         -2.7248224810       -0.2491741670       -0.9072535314
 C         -3.5290158162        0.9707141722       -0.7177529227
 C         -4.1272161105        1.1922663861        0.4651817845
 C         -5.0159706591        2.3442377818        0.8624178262
 C         -4.5715684615        3.7544232200        0.4473017349
 C         -3.0518454563        3.9667735451        0.3824239948
 H         -2.7951655975        4.8638095782        0.9493361679
 H         -2.5352180945        3.1276336492        0.8521955529
 C         -2.5344527905        4.1509568832       -1.0465738333
 H         -1.5636171557        4.6506467010       -1.0061505152
 H         -3.2195828942        4.8113696076       -1.5825383903
 C         -2.3481659126        2.8647566666       -1.8510610890
 H         -1.4986386996        2.2989460244       -1.4580600339
 H         -2.0975748075        3.1437376265       -2.8771590225
 C         -3.5612796652        1.9207149164       -1.8800074479
 H         -4.4942712753        2.4774133185       -1.9203464688
 H         -3.4828953386        1.3018869805       -2.7777935604
 H         -5.0041984839        4.0021916406       -0.5209720525
 H         -5.0044157456        4.4469838975        1.1710643074
 H         -6.0175710480        2.1536357740        0.4665079049
 H         -5.0845186903        2.2873931336        1.9514750452
 O         -4.0154003319        0.3251292888        1.5126479917
 C         -3.2636717643       -0.8338911267        1.4176228898
 O         -3.2258914977       -1.5117739608        2.4660315546
 H         -0.3410620717       -0.4022765470        1.1142680470
 C          0.2282116939       -0.9757229716        0.3913111894
 C         -0.3798503446       -2.0500946129       -0.2464925393
 C          0.3696946270       -2.7876845976       -1.1533752036
 C          1.6815735893       -2.4395684960       -1.4260986180
 C          2.2734491108       -1.3546531602       -0.8066554110
 C          1.5380581300       -0.6178851473        0.1127734493
 N          2.1255817298        0.4952618205        0.7408462393
 S          3.6092405347        0.2800444882        1.4990412789
 O          3.7689178939       -1.0756635631        1.9722754448
 O          3.6751494061        1.3222417858        2.5004635701
 C          4.7994696084        0.6267133222        0.2215989702
 C          4.7147811078        1.8385941661       -0.4354734662
 C          5.6410635992        2.1290921843       -1.4242535471
 C          6.6324024331        1.2099155349       -1.7347056184
 C          6.7055785476       -0.0010325824       -1.0635255126
 C          5.7810599710       -0.2986811411       -0.0742552820
 H          5.7943245959       -1.2294455449        0.4700441051
 H          7.4769545943       -0.7140291884       -1.3064062531
 H          7.3520845028        1.4392793567       -2.5046133352
 H          5.5867815665        3.0694013825       -1.9488777155
 H          3.9312443027        2.5256719659       -0.1623276543
 H          1.4930812744        0.9978471436        1.3466487767
 H          3.2911988067       -1.0746917557       -1.0242279427
 H          2.2497521919       -3.0191280564       -2.1374720542
 H         -0.0748622926       -3.6342068028       -1.6502569434
 C         -1.8089933027       -2.3846493540        0.1104735373
 H         -1.8106187257       -2.8274535036        1.1181452443
 C         -2.4575362845       -3.3598333221       -0.8506215671
 C         -2.3186091898       -4.8369178192       -0.6410413186
 C         -3.6306931694       -4.1627931511       -0.3779710893
 H         -4.4480191842       -4.3349946586       -1.0619580148
 H         -3.9420314842       -4.0260698544        0.6478590533
 H         -1.7422981075       -5.1703623805        0.2089292750
 H         -2.2386119307       -5.4757798785       -1.5076525826
 H         -2.4842923124       -2.9839610273       -1.8668299428
 O         -2.1632316835       -0.4788889609       -2.0085847264
