  62
        -98.93413009
 C         -1.8331700037       -1.6605842721        0.1552958826
 C         -1.6452768683       -0.2766279349       -0.0592451795
 C         -2.8599150548        0.5656996399       -0.0571773520
 C         -4.0579831401       -0.0095972416        0.1444569432
 C         -5.4219678922        0.6316552055        0.1833248045
 C         -5.7234699790        1.6740250895       -0.9045888655
 C         -5.8016255798        3.1053596888       -0.3705973499
 H         -6.4143680184        3.6993061591       -1.0524587617
 H         -6.3123864374        3.0884518460        0.5944758865
 C         -4.4579227615        3.8161472814       -0.2191696411
 H         -4.6412736603        4.7614141930        0.2970513836
 H         -4.0641236712        4.0579217002       -1.2088273468
 C         -3.3881161648        3.0371387209        0.5487673981
 H         -2.6663183054        3.7586869332        0.9371378478
 H         -3.8266237203        2.5325018109        1.4088287779
 C         -2.6208652534        2.0280162582       -0.3182614136
 H         -2.8030823653        2.2314529553       -1.3777548907
 H         -1.5442638424        2.1584858225       -0.1699597896
 H         -6.6910144879        1.4257465083       -1.3439548530
 H         -4.9825139958        1.6056201019       -1.6997711509
 H         -6.1271745995       -0.1991764032        0.1069871865
 H         -5.5696147521        1.0739188553        1.1717252655
 O         -4.1882238077       -1.3466558167        0.3846273325
 C         -3.0979195171       -2.1955873744        0.4088209957
 O         -3.3770078141       -3.3827074608        0.6685471798
 H          1.8985788510       -1.9644852677       -0.6679738049
 C          1.7277867688       -1.8007792385        0.3825017466
 C          0.4898675336       -2.0596222768        0.9496824130
 C          0.3088290951       -1.7993860957        2.3062201094
 C          1.3370725277       -1.2861127880        3.0718430911
 C          2.5701937549       -1.0233680776        2.5008921370
 C          2.7631678426       -1.2808869565        1.1492154576
 N          4.0202554675       -1.0617629767        0.5564763131
 S          4.1985684930       -0.1295124671       -0.8212296738
 O          3.3812316428       -0.6528203705       -1.8837083555
 O          5.6259132726       -0.1156281824       -1.0624835418
 C          3.6745740322        1.5092574590       -0.3467486494
 C          4.6441082347        2.4635780015       -0.1030317448
 C          4.2564704251        3.7262959003        0.3136562879
 C          2.9102458193        4.0096322955        0.4887891328
 C          1.9522242563        3.0382516606        0.2451142427
 C          2.3300924395        1.7724162477       -0.1774616509
 H          1.5936110782        1.0083389590       -0.3689563268
 H          0.9035011624        3.2496334222        0.3822083814
 H          2.6053697522        4.9913006452        0.8161383592
 H          5.0018037471        4.4822260733        0.5022737122
 H          5.6779578311        2.1975614208       -0.2537591011
 H          4.7415399230       -0.8096727912        1.2177920928
 H          3.3771789738       -0.6246175618        3.0970311423
 H          1.1790275399       -1.0869824196        4.1211149662
 H         -0.6568014674       -2.0022128626        2.7502988900
 C         -0.6667361288       -2.6328417911        0.1673545611
 H         -1.0370263260       -3.5143627707        0.7174172619
 C         -0.2611307675       -3.1234799336       -1.2146389325
 C         -1.2661584410       -3.2611526430       -2.3180498632
 C         -0.1993839288       -2.2130740364       -2.4021783323
 H          0.6082068757       -2.3443736737       -3.1078957703
 H         -0.4771854447       -1.1812595434       -2.2565151633
 H         -1.1988258801       -4.1210343634       -2.9674478708
 H         -2.2797548627       -2.9461141067       -2.1157389069
 H          0.4960338810       -3.9003679163       -1.1602765045
 O         -0.5195604821        0.2537667677       -0.2426432238
