  62
        -98.93428339
 C          2.3259175596        1.1737126098        0.0928554584
 C          3.2540207398        0.5115146805        0.9315167586
 C          4.1636721597       -0.4627658499        0.2975884291
 C          4.0344200994       -0.7006127408       -1.0207318108
 C          4.8109398393       -1.6708230114       -1.8701250603
 C          4.3634203194       -3.1278464113       -1.6636980892
 C          4.1125504798       -3.5263625703       -0.2112672288
 H          3.3671874498       -2.8559605600        0.2214965709
 H          3.6810900198       -4.5309714203       -0.2118747781
 C          5.3510715400       -3.5520401396        0.6813476909
 H          5.0360805702       -3.9122810090        1.6642435712
 H          6.0671052199       -4.2717739199        0.2782516812
 C          6.0663994499       -2.2135239094        0.8719076598
 H          6.7811065901       -2.3408563089        1.6903415398
 H          6.6484117997       -1.9538424900       -0.0081818205
 C          5.1585607600       -1.0528604992        1.2678791092
 H          5.7881701800       -0.2154451990        1.5934659985
 H          4.5793708202       -1.3373944386        2.1539460996
 H          3.4299367493       -3.2738272417       -2.2125832889
 H          5.1171225994       -3.7861710115       -2.0985905289
 H          5.8747651893       -1.5596425312       -1.6822753606
 H          4.6258640491       -1.3951784321       -2.9105625704
 O          3.0864787092       -0.0825859714       -1.7796636210
 C          2.2124496993        0.8591646489       -1.2618056414
 O          1.4093755891        1.3158963683       -2.0949773515
 O          3.3199066901        0.7162650913        2.1747111184
 C          1.3950572097        2.1880126202        0.7311650279
 C         -0.0298944304        1.9353333199        0.3053651584
 C         -0.8325830306        2.8861926694       -0.3093562521
 C         -2.1363750406        2.5808330391       -0.6600914916
 C         -2.6664818105        1.3294674493       -0.4091132606
 C         -1.8741716903        0.3703964297        0.2088514398
 C         -0.5724627203        0.6822836300        0.5670486993
 H          0.0454282799       -0.0666231496        1.0495710797
 N         -2.4029066202       -0.9105981701        0.4553814308
 S         -3.8415722500       -1.0087092396        1.3178117112
 O         -3.9844485199        0.1012450510        2.2318253305
 O         -3.8385578498       -2.3298699092        1.9077598921
 C         -5.1038698403       -0.9335023805        0.0650904115
 C         -6.0679778003        0.0540367495        0.1190774410
 C         -7.0437581306        0.0919431787       -0.8648015488
 C         -7.0384294907       -0.8536661120       -1.8787906182
 C         -6.0652384007       -1.8413081119       -1.9163000277
 C         -5.0874524905       -1.8854265312       -0.9353748579
 H         -4.3160301304       -2.6373854812       -0.9263098476
 H         -6.0645634608       -2.5751342725       -2.7061595272
 H         -7.7974204409       -0.8213099925       -2.6444232580
 H         -7.8014798206        0.8584084187       -0.8370606992
 H         -6.0280163502        0.7711553500        0.9233720105
 H         -1.7270640101       -1.5615096498        0.8285527411
 H         -3.6780475906        1.0868243890       -0.6904753002
 H         -2.7465659208        3.3280341888       -1.1441083120
 H         -0.4326270507        3.8610934493       -0.5334297829
 H          1.4618180699        1.9742440610        1.8120146580
 C          1.8317840796        3.6345553601        0.5535867868
 C          3.2728685595        3.9873072901        0.3412007762
 C          2.2834573593        4.1807282193       -0.7665114037
 H          1.9995887292        5.1899316591       -1.0269496843
 H          2.3069936191        3.5028828487       -1.6050057232
 H          3.6657952696        4.8594918204        0.8418937755
 H          3.9809483795        3.1753557700        0.2590263466
 H          1.2649881897        4.3070144305        1.1904412865
