  62
        -98.94003969
 C         -2.5632458300       -1.1711038385        0.3156643145
 C         -2.6123555325       -0.3690410019       -0.8515156039
 C         -3.5667405695        0.7515256424       -0.8183155425
 C         -4.3041165844        0.9642233186        0.2858333725
 C         -5.2748767301        2.0941398847        0.4680200581
 C         -4.5937339683        3.3155170524        1.1010725078
 C         -3.2837406777        3.7135044994        0.4206738893
 H         -2.9098429246        4.6037708702        0.9312446093
 H         -2.5462291275        2.9220659265        0.5753677400
 C         -3.4101514393        4.0001068195       -1.0821972354
 H         -4.4550038182        4.1799840425       -1.3376495509
 H         -2.8584155400        4.9141958859       -1.3110735669
 C         -2.8485686822        2.9020910958       -1.9875823464
 H         -1.8318888892        2.6509859505       -1.6740196817
 H         -2.7882789827        3.2987161150       -3.0044337682
 C         -3.6662405728        1.6058801564       -2.0507988167
 H         -4.7091328576        1.8384815337       -2.2753892422
 H         -3.2636960983        1.0006554368       -2.8682309507
 H         -5.2912258055        4.1544695114        1.0703916596
 H         -4.3806452117        3.0892905725        2.1486180942
 H         -5.6984951291        2.3611423517       -0.4981322529
 H         -6.0771780190        1.7553759082        1.1257592763
 O         -4.2067588917        0.1918851729        1.3989890746
 C         -3.3253970876       -0.8758222670        1.4483299706
 O         -3.3064533867       -1.4721106708        2.5445278132
 H         -0.1366351389       -0.3460878997        1.3057813478
 C          0.3827858111       -0.8866170672        0.5218835724
 C         -0.2459989079       -1.9729276069       -0.0762082768
 C          0.4319465775       -2.6602980717       -1.0733321354
 C          1.6984924257       -2.2599399741       -1.4630659535
 C          2.3146252705       -1.1729248989       -0.8721198926
 C          1.6466799188       -0.4784618260        0.1282446403
 N          2.2679549778        0.6351200063        0.7293319969
 S          3.7486728882        0.3599648080        1.4787065777
 O          3.8463547318       -0.9973542661        1.9652381324
 O          3.8738330018        1.4077949979        2.4688191203
 C          4.9451268547        0.6329332075        0.1893673125
 C          5.8161664908       -0.3784782226       -0.1654264357
 C          6.7463618294       -0.1408614672       -1.1654496830
 C          6.7890542217        1.0971851772       -1.7882803474
 C          5.9082996121        2.1029687384       -1.4186102724
 C          4.9765695673        1.8724195999       -0.4191308446
 H          4.2778843978        2.6272928780       -0.0989235038
 H          5.9444929276        3.0642455587       -1.9054360254
 H          7.5130420959        1.2796330173       -2.5666486502
 H          7.4317311548       -0.9213551266       -1.4544871869
 H          5.7417774693       -1.3259601580        0.3438872002
 H          1.6589054358        1.1424694616        1.3554413881
 H          3.2969902635       -0.8535199381       -1.1797371739
 H          2.2104984336       -2.7998979936       -2.2448729223
 H         -0.0384725065       -3.4979273981       -1.5609986141
 C         -1.6172653892       -2.3542833753        0.4275077449
 H         -1.5275408254       -2.5426555558        1.5111177480
 C         -2.1512479432       -3.6397352573       -0.1874746355
 C         -3.6250166351       -3.8841994178       -0.3110318695
 C         -2.7945761752       -3.6760046088       -1.5398980887
 H         -2.6014841528       -4.5279873566       -2.1753289282
 H         -2.8856223855       -2.7436117173       -2.0734242748
 H         -4.2922451088       -3.0926773988       -0.0012629097
 H         -3.9983277370       -4.8751381993       -0.1001202162
 H         -1.5473947087       -4.4986967455        0.0892402436
 O         -1.9049512057       -0.5657218324       -1.8717463352
