  62
        -98.93823136
 C         -0.5266228496       -1.7447942699        0.0357374807
 C         -1.4885887598       -1.3392735502        0.9879015807
 C         -2.7527515002       -0.7853314411        0.4636857405
 C         -2.8909389303       -0.6186375816       -0.8654826495
 C         -4.0601843206       -0.1510281825       -1.7087097596
 C         -5.3894773208        0.2038864869       -1.0497258197
 C         -5.3980777316        1.5648701271       -0.3498286801
 H         -5.4640098020        2.3398680668       -1.1171940603
 H         -6.2937760016        1.6357463768        0.2701234099
 C         -4.1686126717        1.8712278281        0.5012504798
 H         -4.2343508823        2.9151353981        0.8186418195
 H         -3.2685412617        1.7650585284       -0.1048827402
 C         -4.0131983212        1.0159380886        1.7542794600
 H         -4.8907214112        1.1322312982        2.3942834600
 H         -3.1447797214        1.3818269592        2.3092614899
 C         -3.8029794403       -0.4810680514        1.4967921505
 H         -3.4472193000       -0.9344167209        2.4272588506
 H         -4.7439133200       -0.9636591520        1.2419489806
 H         -6.1397193908        0.2362064062       -1.8439746597
 H         -5.6873230303       -0.5912893631       -0.3719606594
 H         -3.7048626811        0.7012774175       -2.2962825399
 H         -4.2316308001       -0.9622159628       -2.4241962194
 O         -1.8815932602       -0.9213131912       -1.7367132795
 C         -0.7100410398       -1.5354170304       -1.3288442693
 O          0.0664976104       -1.8303079603       -2.2562239692
 O         -1.3162038697       -1.4652759897        2.2310913007
 C          0.7001011608       -2.5031844091        0.5055003909
 C          1.9725163605       -1.9668747885       -0.0990886293
 C          2.9411644110       -2.7908023581       -0.6588396190
 C          4.1070714806       -2.2547259976       -1.1753916392
 C          4.3399171399       -0.8941657874       -1.1266188697
 C          3.3809958294       -0.0596492578       -0.5620342899
 C          2.2068857797       -0.5971581883       -0.0594959897
 H          1.4637265293        0.0556642513        0.3778040101
 N          3.5926554586        1.3245786323       -0.5207706103
 S          2.9545496480        2.2800297523        0.6838250094
 O          3.7637139773        3.4810643628        0.6533152990
 O          2.9002952485        1.5928835127        1.9530221496
 C          1.3198804478        2.6993580312        0.1232558694
 C          1.1108954776        2.9305801107       -1.2215246707
 C         -0.1418995927        3.3471471998       -1.6420406808
 C         -1.1541001527        3.5390610495       -0.7145891108
 C         -0.9286660426        3.3003417400        0.6321980992
 C          0.3185772177        2.8730875409        1.0573537993
 H          0.5327453179        2.6658429513        2.0941966294
 H         -1.7173015426        3.4462320398        1.3525684492
 H         -2.1243409729        3.8783509888       -1.0418451509
 H         -0.3226105128        3.5251672094       -2.6900697108
 H          1.9210345077        2.7787869309       -1.9150651507
 H          4.5038597684        1.6348929928       -0.8230643604
 H          5.2515632196       -0.4744726270       -1.5237150798
 H          4.8470264710       -2.9065828773       -1.6143959591
 H          2.7836414916       -3.8558083582       -0.6960601787
 H          0.7491537508       -2.3438234787        1.5935920909
 C          0.4873045717       -3.9824907293        0.2438698614
 C          1.1115617023       -5.0130409686        1.1356216317
 C         -0.3658281078       -4.7701297595        1.1907104417
 H         -1.0291621474       -5.5197506500        0.7856578219
 H         -0.7699476281       -4.2451457195        2.0437369615
 H          1.4614730729       -5.9342244686        0.6943556519
 H          1.7138847521       -4.6611446880        1.9594973516
 H          0.3948165518       -4.2066215996       -0.8138453485
