  62
        -98.94320260
 C         -1.9084981803       -0.4951688017       -0.7684217491
 C         -2.3181009803       -0.1387099605        0.5395913606
 C         -3.7616571803       -0.2239030008        0.7964433508
 C         -4.5919196802       -0.6463675420       -0.1744487588
 C         -6.0818744501       -0.8194158524       -0.0532448185
 C         -6.8818727806        0.4710478471       -0.2770538498
 C         -6.7953716509        1.4938737483        0.8563238092
 H         -7.5660931611        2.2443606978        0.6695482485
 H         -7.0373160107        1.0076037891        1.8019064797
 C         -5.4365386111        2.1989172688        0.9698503185
 H         -4.8771856011        2.0630240081        0.0414258386
 H         -5.5933803715        3.2727006689        1.0946129174
 C         -4.5732121109        1.7283282503        2.1404587489
 H         -5.0658896009        1.9784852210        3.0826561587
 H         -3.6230048311        2.2667862806        2.1032322783
 C         -4.2651949304        0.2251838804        2.1349224803
 H         -5.1516730902       -0.3416185897        2.4189179809
 H         -3.4762974003        0.0331442114        2.8662776605
 H         -7.9292893905        0.1870711666       -0.4027976294
 H         -6.5483479608        0.9311774363       -1.2100644702
 H         -6.3733931699       -1.5419776632       -0.8186866778
 H         -6.3242114699       -1.2340318515        0.9257129019
 O         -4.1536863501       -0.9985710331       -1.4132254285
 C         -2.8107658802       -0.9154092129       -1.7446827886
 O         -2.5490277601       -1.2483920340       -2.9192692683
 O         -1.5243823504        0.2240578006        1.4453245702
 C         -0.4410669903       -0.4270747315       -1.1445267892
 C          0.3927426300       -1.3216511604       -0.2582732184
 C         -0.1181970495       -2.5446357401        0.1674045728
 C          0.6296064208       -3.3831439791        0.9707052336
 C          1.9150653807       -3.0339319183        1.3448043832
 C          2.4445352503       -1.8269877385        0.9075056720
 C          1.6822981899       -0.9763910496        0.1181529712
 H          2.1120534296       -0.0439045997       -0.2084865397
 N          3.7457546002       -1.4415892077        1.2650988415
 S          4.7486419099       -0.7656642185        0.1075018608
 O          4.4603028200       -1.2778673599       -1.2117797587
 O          6.0892118300       -1.0035072076        0.6005675410
 C          4.4230179393        0.9832379514        0.1733506691
 C          4.5048523190        1.7170379703       -0.9934031616
 C          4.3076037885        3.0882751803       -0.9399690129
 C          4.0327654283        3.6983657214        0.2741168065
 C          3.9546358987        2.9468331225        1.4369925672
 C          4.1558738891        1.5765109425        1.3912927686
 H          4.0988375594        0.9636584534        2.2752672192
 H          3.7369892785        3.4243393334        2.3788173068
 H          3.8767635380        4.7649695814        0.3135608055
 H          4.3670338682        3.6728806994       -1.8443714435
 H          4.7074788191        1.2007736795       -1.9181028411
 H          4.2419452204       -2.1098699170        1.8369038022
 H          2.5030144210       -3.6903292075        1.9684276638
 H          0.2117904811       -4.3221815789        1.3017395445
 H         -1.1174323994       -2.8283889708       -0.1342674468
 H         -0.3700167602       -0.8152564525       -2.1721590789
 C          0.0233696792        1.0160867086       -1.1358359607
 C          1.0631902090        1.4914644581       -2.1039275312
 C         -0.3666693612        1.9046695174       -2.2773495715
 H         -0.6378782815        2.9280371475       -2.0664151825
 H         -0.9372007711        1.4571915664       -3.0786614410
 H          1.7727929187        2.2338019386       -1.7705048619
 H          1.4726901292        0.7695311775       -2.7950103705
 H          0.0165655891        1.4455107696       -0.1405302311
