  62
        -98.93334602
 C         -1.8305244395       -1.2160519200        0.4141053402
 C         -2.7031115596       -0.8453536705       -0.6351578199
 C         -3.7364285398        0.1615540494       -0.3109139602
 C         -3.7798230398        0.6885477498        0.9249246096
 C         -4.7343726200        1.7133414698        1.4830388793
 C         -6.2224012700        1.5036610994        1.1610587295
 C         -6.7862882902        2.5458450190        0.1941902792
 H         -6.3706308704        3.5217500292        0.4535481888
 H         -7.8678588302        2.6048251488        0.3354747192
 C         -6.5282888202        2.2628744086       -1.2847761008
 H         -6.8496355404        3.1410837983       -1.8498387610
 H         -7.1518454401        1.4255023683       -1.6057591605
 C         -5.0755800702        1.9493905187       -1.6498356907
 H         -4.3941617303        2.6004023990       -1.1039899410
 H         -4.9454173102        2.1711423284       -2.7112727908
 C         -4.6885016199        0.4792276989       -1.4323289403
 H         -4.1929092398        0.0959981287       -2.3297262902
 H         -5.5898693598       -0.1283273113       -1.3070513700
 H         -6.7802607799        1.5744052496        2.0962879995
 H         -6.3788050598        0.4999301693        0.7683571298
 H         -4.5808845399        1.6849830902        2.5641500493
 H         -4.4189888602        2.7046161597        1.1491948390
 O         -2.8785861597        0.3449388103        1.8897389097
 C         -1.9030164795       -0.6048952096        1.6686045400
 O         -1.1677544095       -0.8232081892        2.6535424500
 H          1.6392278507       -1.9399991190        1.4450737902
 C          1.6579445006       -1.6304452594        0.4088206101
 C          0.4995304706       -1.7211700698       -0.3484423598
 C          0.5294460804       -1.2877371102       -1.6697197199
 C          1.7018476903       -0.7999157102       -2.2176155201
 C          2.8629508403       -0.7310912597       -1.4665457002
 C          2.8369172105       -1.1405901193       -0.1400612701
 N          3.9993922105       -1.0775966288        0.6397486699
 S          5.1336895503        0.1181468513        0.3941122194
 O          5.9384543003       -0.2021663289       -0.7587372205
 O          5.8440115403        0.2169672918        1.6496293794
 C          4.2229783000        1.6216087810        0.0839787090
 C          3.2257275199        1.9889708811        0.9653387289
 C          2.5262747697        3.1623200409        0.7335643786
 C          2.8368356295        3.9470453506       -0.3666409417
 C          3.8436235996        3.5667036205       -1.2401515416
 C          4.5436031798        2.3922422207       -1.0154213713
 H          5.3302278898        2.0557998507       -1.6713819812
 H          4.0835673094        4.1789753503       -2.0944305318
 H          2.2896124893        4.8597438505       -0.5422480120
 H          1.7400826097        3.4559110010        1.4109440685
 H          3.0024994901        1.3638409913        1.8153532991
 H          3.8666455506       -1.2866702486        1.6173323099
 H          3.7873909203       -0.3780979797       -1.8938642403
 H          1.7155265102       -0.4722640605       -3.2459534802
 H         -0.3755960796       -1.3293938906       -2.2556371199
 C         -0.7553372893       -2.2827441699        0.2761735705
 H         -0.5073671592       -2.5783480695        1.3047747905
 C         -1.2236956391       -3.5170620602       -0.4698236991
 C         -0.4797601488       -4.8024582000       -0.2754502388
 C         -1.8564420888       -4.6388170001        0.2943011812
 H         -2.6733681888       -5.1767702504       -0.1626668885
 H         -1.9555257488       -4.5236070197        1.3642365912
 H          0.3558037312       -4.7994531496        0.4085090812
 H         -0.3483081088       -5.4547476302       -1.1249570986
 H         -1.6154413992       -3.3051313006       -1.4550808592
 O         -2.6489114996       -1.3192619509       -1.8005869098
