  62
        -98.94671502
 C         -1.9916702495       -1.4553181053       -0.1010395522
 C         -1.7191803772       -0.2140147891       -0.7223596240
 C         -2.8734729628        0.6762541826       -0.9080974089
 C         -4.0945756868        0.2605593714       -0.5252737893
 C         -5.3445615408        1.0872919872       -0.6043952381
 C         -5.5725989144        1.8740291358        0.6943025798
 C         -4.3396023849        2.6351083297        1.1819911443
 H         -4.6282015401        3.1733808230        2.0874044290
 H         -3.5674135320        1.9171203787        1.4677420865
 C         -3.7582535190        3.6246838975        0.1625426576
 H         -4.5014933310        3.8456556107       -0.6043639023
 H         -3.5327224437        4.5621708810        0.6750282069
 C         -2.4633251256        3.1588734137       -0.5059437844
 H         -1.7514776401        2.8413398509        0.2606799651
 H         -2.0275033883        4.0131790887       -1.0311626060
 C         -2.6136518062        2.0218390586       -1.5247759304
 H         -3.3931317448        2.2739315740       -2.2465083476
 H         -1.6660104324        1.9254706761       -2.0632339011
 H         -6.3948212882        2.5737357943        0.5337296492
 H         -5.8723327070        1.1718315531        1.4757702898
 H         -5.2691136924        1.7710080493       -1.4476944031
 H         -6.1908011587        0.4175589376       -0.7663601619
 O         -4.3227995164       -0.9568357541        0.0315694961
 C         -3.2795824687       -1.8351283225        0.2761304336
 O         -3.6203056899       -2.9017364577        0.8262833054
 H          1.8711750837       -2.1107241582       -0.2716043180
 C          1.5282124395       -1.6739591050        0.6507524610
 C          0.1940816647       -1.7418139520        1.0180064895
 C         -0.1971437598       -1.1591466025        2.2219508962
 C          0.7201920598       -0.5151863868        3.0284027582
 C          2.0483700176       -0.4297213292        2.6467261425
 C          2.4507953375       -1.0118366477        1.4517504557
 N          3.7988778729       -0.9642264745        1.0496597748
 S          4.2085623041       -0.3229686572       -0.4427804017
 O          3.5785620270       -1.0784211911       -1.4931826600
 O          5.6557838258       -0.3097480153       -0.4452779373
 C          3.6048122176        1.3553336913       -0.3999294922
 C          4.4990363000        2.3651686368       -0.0981158842
 C          4.0377844768        3.6679658786       -0.0076474091
 C          2.6922853048        3.9374336005       -0.2098095878
 C          1.8088630663        2.9116271475       -0.5060150182
 C          2.2625070361        1.6046367784       -0.6030605718
 H          1.5825835724        0.7999197248       -0.8339645701
 H          0.7603431902        3.1090582157       -0.6638506441
 H          2.3297927050        4.9508474944       -0.1374459719
 H          4.7251990240        4.4665067450        0.2210500721
 H          5.5362813599        2.1089797368        0.0466349491
 H          4.4168533205       -0.5808171177        1.7514970076
 H          2.7671013841        0.0791275847        3.2712195293
 H          0.3997402015       -0.0693610758        3.9579542551
 H         -1.2372513550       -1.2199253895        2.5140648362
 C         -0.8547465068       -2.4237791925        0.1732166193
 H         -1.2884567497       -3.2455034506        0.7617580542
 C         -0.3177212960       -2.9887516100       -1.1247192457
 C          0.3383488926       -4.3354594453       -1.1419210557
 C         -1.0171540346       -4.1537002018       -1.7547427635
 H         -1.1064342445       -4.1817104466       -2.8304322733
 H         -1.8737838574       -4.5576999131       -1.2345509083
 H          1.1840017815       -4.4862546778       -1.7962235890
 H          0.4040376045       -4.8715426259       -0.2070451238
 H          0.0741998427       -2.2256436402       -1.7880606967
 O         -0.5714164450        0.1382406000       -1.0984133195
