  62
        -98.93247359
 C          1.7524562230        0.0202786225        0.3633073327
 C          2.7235809688        0.7733785962       -0.3416078264
 C          4.0690185461        0.1751302714       -0.4244776610
 C          4.2918558545       -1.0344639891        0.1177374515
 C          5.6178567519       -1.7389308502        0.1707824414
 C          6.4955617725       -1.1292335468        1.2825872879
 C          7.7511879936       -0.4182646978        0.7768736421
 H          8.1647863171        0.1489189590        1.6135563262
 H          8.4916195452       -1.1678182029        0.4895535658
 C          7.5515293420        0.5236885649       -0.4144045404
 H          8.4494062364        1.1414338906       -0.4846402243
 H          7.5011568872       -0.0570277030       -1.3366328807
 C          6.3249906665        1.4426025414       -0.3451374861
 H          6.6098791749        2.4189902342       -0.7422209727
 H          6.0193344503        1.5977906604        0.6897802441
 C          5.1154029070        0.9598348644       -1.1671751154
 H          4.5849379187        1.8345907687       -1.5548039469
 H          5.4651216011        0.3805933825       -2.0261008468
 H          6.8029764583       -1.9144918983        1.9749694296
 H          5.8842283752       -0.4286326704        1.8553517872
 H          6.1141024865       -1.6625576212       -0.7941601160
 H          5.4178349406       -2.7903384663        0.3785168485
 O          3.3262828553       -1.7405784232        0.7632416647
 C          2.0468038246       -1.2329520847        0.9064979185
 O          1.2692896120       -1.9793796644        1.5357149467
 O          2.5012108769        1.8865979221       -0.8818278997
 C          0.3218622696        0.4949515015        0.5685052824
 C         -0.5399526810        0.0722978209       -0.5935198674
 C         -0.1938213556        0.4071435664       -1.9001360142
 C         -0.9786898055       -0.0060692991       -2.9598357860
 C         -2.1252534499       -0.7496367699       -2.7396564000
 C         -2.4786862500       -1.0904701544       -1.4394946352
 C         -1.6879431201       -0.6751566397       -0.3751282780
 H         -1.9585761611       -0.9726214269        0.6269745378
 N         -3.6283590518       -1.8514910533       -1.1940442530
 S         -4.5282428767       -1.6372721293        0.1904666590
 O         -3.8825476610       -2.2556430329        1.3209224420
 O         -5.8346160438       -2.1597542442       -0.1503940802
 C         -4.6391807187        0.1263290743        0.4449221778
 C         -4.9175382394        0.9485284469       -0.6293860806
 C         -5.0315686271        2.3130188494       -0.4178039992
 C         -4.8782685396        2.8308860597        0.8589210882
 C         -4.6077020529        1.9923177874        1.9288186857
 C         -4.4828198554        0.6272250137        1.7212702777
 H         -4.2575176272       -0.0587622572        2.5225658570
 H         -4.4861327801        2.3948149341        2.9216657421
 H         -4.9661432528        3.8932119059        1.0212362131
 H         -5.2389832141        2.9676118747       -1.2487551476
 H         -5.0414503491        0.5219165455       -1.6111204499
 H         -4.1992279894       -2.0531522478       -2.0009708654
 H         -2.7361111209       -1.0758990766       -3.5675622922
 H         -0.6980860836        0.2565457173       -3.9685593929
 H          0.6960254402        0.9933119676       -2.0705226463
 H         -0.0360304902       -0.0507767985        1.4561801766
 C          0.2272658951        1.9840947147        0.8770273490
 C         -0.4982795718        2.9648770992        0.0094754428
 C         -1.0826094471        2.5600289348        1.3266463495
 H         -1.0844293136        3.2719369990        2.1377922877
 H         -1.9390874971        1.9023621533        1.3122365123
 H         -0.0706545489        3.9506514033       -0.0897519277
 H         -0.9711411012        2.6019492207       -0.8889543367
 H          1.1164385444        2.3531327159        1.3765660407
