  62
        -98.94023044
 C         -2.4791116597       -1.0974192841        0.0793280292
 C         -2.7164917022       -0.0322807277       -0.8223576569
 C         -4.1226114162        0.3671885581       -0.9812156595
 C         -5.0777556830       -0.2956656647       -0.3036185721
 C         -6.5400445794        0.0413027474       -0.3310183310
 C         -6.9029716475        1.0276158713        0.7880718863
 C         -5.9777694684        2.2421734928        0.8647715208
 H         -6.3469870840        2.8820119620        1.6692109008
 H         -4.9769205321        1.9110500062        1.1513979455
 C         -5.8876532885        3.0546092171       -0.4345127439
 H         -6.7319737719        2.8136785470       -1.0813383442
 H         -5.9595323395        4.1162498772       -0.1891917290
 C         -4.5838574012        2.8648916174       -1.2122038027
 H         -4.5321825708        3.6382880702       -1.9831682003
 H         -3.7317967436        3.0124060064       -0.5435778707
 C         -4.4154764532        1.5102183267       -1.9119159516
 H         -5.2967196843        1.2972158439       -2.5203953123
 H         -3.5484299246        1.5842645014       -2.5748669871
 H         -6.8549066419        0.4997913810        1.7433402913
 H         -7.9311906908        1.3601791767        0.6348877163
 H         -6.7912778830        0.4665493028       -1.3006100558
 H         -7.1074983104       -0.8800255457       -0.1896548087
 O         -4.8111105843       -1.3307509727        0.5341834562
 C         -3.5095697436       -1.7480404517        0.7569889892
 O         -3.4014887555       -2.6896859374        1.5689273468
 H          1.4919967700       -0.8647512749       -0.4695246109
 C          1.0866983674       -0.2246802218        0.2960443178
 C         -0.1883325313       -0.4359953904        0.7951512918
 C         -0.6631203180        0.4164329610        1.7892744224
 C          0.1130440525        1.4582340871        2.2576948074
 C          1.3888590580        1.6614616817        1.7613270493
 C          1.8748069676        0.8138734132        0.7738984077
 N          3.1585051477        1.0004147903        0.2362039338
 S          4.0612499920       -0.3675332256       -0.1707394654
 O          3.6981002270       -0.7946910999       -1.4981577205
 O          3.9508635465       -1.3604502281        0.8740613213
 C          5.7041211185        0.3273581162       -0.1911291030
 C          6.1370207070        0.9812079607       -1.3292966284
 C          7.4012361990        1.5489079735       -1.3355234933
 C          8.2064744636        1.4554228505       -0.2099815036
 C          7.7590197719        0.7948327298        0.9243270908
 C          6.4954812234        0.2253326356        0.9375536799
 H          6.1096635505       -0.3059193119        1.7927777984
 H          8.3885842230        0.7208914660        1.7963949829
 H          9.1902494736        1.8975314916       -0.2179799598
 H          7.7537043785        2.0605731082       -2.2165477698
 H          5.4796680698        1.0207906283       -2.1822985996
 H          3.7091127366        1.6699752891        0.7561005994
 H          1.9981791098        2.4724161512        2.1304938300
 H         -0.2738598204        2.1134374462        3.0239270528
 H         -1.6554413332        0.2500651325        2.1875352355
 C         -1.0603828039       -1.5751489845        0.3249648245
 H         -1.1216003044       -2.3116859348        1.1407903893
 C         -0.5249502122       -2.2678369254       -0.9110985847
 C          0.5065380593       -3.3472838347       -0.7868305371
 C         -0.9001282040       -3.6948715540       -1.1691290031
 H         -1.0986716081       -4.0006470277       -2.1853223939
 H         -1.5248121859       -4.1823547730       -0.4345471336
 H          1.2803164030       -3.4079666101       -1.5380910783
 H          0.8451444844       -3.6038666166        0.2061528580
 H         -0.4642954378       -1.6032903278       -1.7661524724
 O         -1.8043918454        0.5565744355       -1.4595573482
