  62
        -98.93538764
 C         -2.2954380144       -1.1388815452       -0.5317294814
 C         -3.5927977437       -0.9956945600        0.0178000018
 C         -4.3254219629        0.2343101447       -0.3268933200
 C         -3.7307856600        1.1462963936       -1.1154129300
 C         -4.2702610509        2.4862407435       -1.5331617682
 C         -3.7910860743        3.5873532542       -0.5718534671
 C         -4.6764321940        3.8008195197        0.6554127914
 H         -4.1588784875        4.5062176378        1.3096810571
 H         -5.6132697404        4.2682049582        0.3448317500
 C         -5.0023362093        2.5371733146        1.4560507794
 H         -4.1038472749        1.9252531989        1.5589339520
 H         -5.2979196414        2.8452982357        2.4609274534
 C         -6.1364298901        1.7061202182        0.8374394466
 H         -6.6360340306        2.3003350902        0.0725321152
 H         -6.8858416413        1.4929277210        1.6024367947
 C         -5.7115122282        0.3538459006        0.2457641755
 H         -5.7549947589       -0.4133681619        1.0250764181
 H         -6.4328364312        0.0588004674       -0.5234558085
 H         -3.7379056800        4.5313172907       -1.1181668566
 H         -2.7751123795        3.3371099483       -0.2540046830
 H         -5.3540708416        2.4632270070       -1.5959224747
 H         -3.8632583611        2.6902062193       -2.5256604604
 O         -2.4767595761        0.9751972110       -1.6151467796
 C         -1.7249975391       -0.1539138957       -1.3377002718
 O         -0.5988116247       -0.1540575265       -1.8715696781
 O         -4.1176032580       -1.8607043001        0.7693944998
 C         -1.5003362056       -2.3834609558       -0.1697265590
 C         -0.3802485194       -1.9579597979        0.7469904246
 C         -0.6400907841       -1.7816305138        2.1033102324
 C          0.3398667539       -1.3046538873        2.9536511041
 C          1.5963886094       -0.9844321250        2.4691250583
 C          1.8612461089       -1.1487351273        1.1166633349
 C          0.8823227504       -1.6474616102        0.2672249440
 H          1.0961409280       -1.7533271302       -0.7845219430
 N          3.1336986078       -0.8146486445        0.6073080190
 S          3.7253852219        0.7054935521        1.0544106436
 O          4.3156813745        0.5921624227        2.3655419495
 O          2.6936158873        1.7098128346        0.9158510008
 C          5.0030231649        0.9457452643       -0.1637303888
 C          4.6672222284        1.5202905191       -1.3751464699
 C          5.6530632853        1.6810991075       -2.3359676508
 C          6.9490477768        1.2634205900       -2.0715970046
 C          7.2696586231        0.6868711056       -0.8516996300
 C          6.2890857931        0.5240389580        0.1140890342
 H          6.4907296914        0.0886014316        1.0787296298
 H          8.2785045958        0.3646905695       -0.6504566044
 H          7.7134297726        1.3904345307       -2.8218380589
 H          5.4057607752        2.1297713775       -3.2847390481
 H          3.6481542883        1.8367944704       -1.5358177484
 H          3.1519689084       -0.9024959925       -0.4008410277
 H          2.3643165192       -0.5892334343        3.1145115831
 H          0.1236613875       -1.1723482064        4.0033689027
 H         -1.6291200921       -2.0053790471        2.4787265850
 H         -2.1920758695       -3.0133484745        0.4050916375
 C         -1.0404211942       -3.1512478938       -1.3906782722
 C         -0.5312087361       -4.5509964630       -1.2245434244
 C         -1.8572789941       -4.3085152560       -1.8784856563
 H         -1.9442489934       -4.4633193885       -2.9434771975
 H         -2.7526968794       -4.5556899174       -1.3274199520
 H          0.2937634259       -4.8766440485       -1.8392805112
 H         -0.5252043756       -4.9613680306       -0.2261525495
 H         -0.5741104196       -2.5266570347       -2.1424713012
