  62
        -98.94096815
 C         -1.7217269489       -0.1423074804        0.9251240104
 C         -2.9252857190       -0.8712831402        0.7636009605
 C         -4.1366493689       -0.0694303299        0.5275599210
 C         -4.0478673988        1.2707156501        0.4648099013
 C         -5.1906028487        2.1963551403        0.1660786118
 C         -5.3093239890        2.4659181107       -1.3406022781
 C         -5.2843640894        1.2012057209       -2.1990540384
 H         -4.3003716395        0.7336407208       -2.1169358588
 H         -5.4061449896        1.5117394012       -3.2390703383
 C         -6.3654096795        0.1709170310       -1.8437726484
 H         -6.8195087298       -0.1931765287       -2.7678383384
 H         -7.1549067493        0.6474173310       -1.2613956581
 C         -5.8486987195       -1.0549241693       -1.0885294089
 H         -4.9962435597       -1.4818985492       -1.6228512292
 H         -6.6407645996       -1.8085753091       -1.0810607989
 C         -5.4327682591       -0.8138526297        0.3680040911
 H         -5.2770945291       -1.7911903898        0.8340277208
 H         -6.2376292289       -0.3038863697        0.9011061214
 H         -4.4751492090        3.1021295807       -1.6452004581
 H         -6.2370515290        3.0120019309       -1.5211325877
 H         -6.1136532587        1.7586004804        0.5411552719
 H         -5.0114328884        3.1411539402        0.6819318520
 O         -2.8767603086        1.9379039199        0.6216825212
 C         -1.6961824187        1.2549956597        0.8508144407
 O         -0.6984339385        1.9927561095        0.9774770207
 H          2.0322104310       -0.0972654007        0.2077638195
 C          1.5466851807       -0.8324850505       -0.4155634306
 C          0.2803139207       -1.2876572804       -0.0794741304
 C         -0.3391344796       -2.2189080301       -0.9058346905
 C          0.3016589401       -2.6777939799       -2.0419311508
 C          1.5758795600       -2.2411326700       -2.3600407610
 C          2.2053067304       -1.3145253703       -1.5377609409
 N          3.4943814604       -0.8479173804       -1.8296997211
 S          4.5871324507       -0.5766117209       -0.5908782613
 O          5.8835933405       -0.6699150709       -1.2273848116
 O          4.3593555909       -1.4661072911        0.5234011185
 C          4.3046792611        1.1122899590       -0.1070537708
 C          4.0761314514        1.4162433287        1.2199331793
 C          3.8777210517        2.7393145787        1.5810271997
 C          3.9135638216        3.7304408589        0.6128613000
 C          4.1486343213        3.4094132492       -0.7155539502
 C          4.3477637010        2.0885246893       -1.0824018106
 H          4.5365303307        1.8007311095       -2.1031946707
 H          4.1749590912        4.1845267194       -1.4644933700
 H          3.7556005418        4.7589125989        0.8967372203
 H          3.6918029220        2.9903763484        2.6130914898
 H          4.0517858015        0.6139811085        1.9411819691
 H          3.9318399301       -1.2760094303       -2.6324993213
 H          2.0809186898       -2.6141966098       -3.2382807112
 H         -0.1902804402       -3.3962733097       -2.6803733208
 H         -1.3231448096       -2.5785841500       -0.6476221804
 C         -0.3728497689       -0.7910602806        1.1883282699
 H          0.2642895213        0.0079968492        1.5914658999
 C         -0.4244829888       -1.9155686809        2.2069921296
 C          0.8600583313       -2.3956551512        2.8106864192
 C         -0.1178386484       -1.6225299013        3.6429759896
 H         -0.6730043683       -2.1472111314        4.4061150296
 H          0.1277288418       -0.6033504414        3.9045061998
 H          1.7750970513       -1.9115415613        2.5007710991
 H          0.9736141212       -3.4520620113        3.0013624289
 H         -1.1879322790       -2.6522908307        1.9956742696
 O         -3.0142535292       -2.1275231101        0.8073946302
