  62
        -98.93728796
 C         -1.9417278259       -1.1095978017        0.1251546394
 C         -2.5791439485       -0.2467327543        1.0498841787
 C         -3.9825876111        0.1201227963        0.7829552302
 C         -4.5762463902       -0.3681252251       -0.3220282826
 C         -5.9752154523       -0.1219098866       -0.8220057842
 C         -6.1429724125        1.2642768092       -1.4628180830
 C         -5.5173652975        2.4129537343       -0.6765467719
 H         -4.4485239208        2.2257548591       -0.5575171976
 H         -5.6214520718        3.3211002185       -1.2762880550
 C         -6.1426408636        2.6815090927        0.6904162086
 H         -5.6768692467        3.5876832081        1.0863799402
 H         -7.2081113212        2.8855509190        0.5632355776
 C         -5.9791767299        1.5720537465        1.7322995128
 H         -6.6857996023        0.7640400187        1.5626913081
 H         -6.2291349280        2.0023813049        2.7065119919
 C         -4.5642515009        1.0147958815        1.8510593410
 H         -4.4917467374        0.4425957397        2.7838593095
 H         -3.8594836567        1.8460023802        1.9694377165
 H         -7.2088925383        1.4528990440       -1.6018132725
 H         -5.6728552645        1.2406386146       -2.4490334120
 H         -6.1728950246       -0.8815284148       -1.5816207219
 H         -6.6907178488       -0.2646018127       -0.0176526381
 O         -3.9167584440       -1.1753214210       -1.1987655289
 C         -2.6013092264       -1.5626518113       -1.0171618436
 O         -2.1657988101       -2.2968342956       -1.9242705181
 O         -1.9980654055        0.2044352269        2.0750278211
 C         -0.5007340720       -1.4925987403        0.4166001183
 C          0.4372608100       -0.6499511540       -0.4131768065
 C          0.6934077127       -0.9282272593       -1.7511917450
 C          1.5666210201       -0.1364253522       -2.4755147016
 C          2.2084964232        0.9367317535       -1.8825135702
 C          1.9557505929        1.2241432791       -0.5481253264
 C          1.0749895456        0.4331054662        0.1759862252
 H          0.8695460858        0.6671307763        1.2122808500
 N          2.6415507965        2.2915560934        0.0689759661
 S          4.3155284450        2.1566083555        0.0444998824
 O          4.7842813486        2.9214263794        1.1781792276
 O          4.8079733779        2.5686701885       -1.2452725919
 C          4.6095604285        0.4135056452        0.2850979283
 C          4.9631125722       -0.3783425206       -0.7882253565
 C          5.0879940329       -1.7453300022       -0.5988793493
 C          4.8542567175       -2.2940563619        0.6521093942
 C          4.5068305080       -1.4839966743        1.7225774564
 C          4.3776085703       -0.1171875438        1.5386994251
 H          4.1120361691        0.5439944027        2.3482939207
 H          4.3300077950       -1.9135711537        2.6959001784
 H          4.9430400953       -3.3593080622        0.7957491850
 H          5.3596129068       -2.3778196612       -1.4283781877
 H          5.1352898498        0.0875780408       -1.7442951335
 H          2.3228699820        2.4763852200        1.0097614091
 H          2.9027231722        1.5548675856       -2.4287791283
 H          1.7531774249       -0.3599375606       -3.5148648435
 H          0.1842719419       -1.7532954809       -2.2231255131
 H         -0.3444487645       -1.2201068302        1.4690884707
 C         -0.2173852497       -2.9727982042        0.2566283730
 C          1.0735063694       -3.5143389343        0.7923159039
 C         -0.2202641774       -3.8548357102        1.4672953350
 H         -0.6057005395       -4.8587472722        1.3706184358
 H         -0.4361538261       -3.3960797254        2.4212860186
 H          1.5789762666       -4.2848120411        0.2315297307
 H          1.7381983815       -2.8186738224        1.2824601181
 H         -0.5989652270       -3.3922920113       -0.6644094948
