  62
        -98.93561800
 C         -2.2188263223       -1.1015133996       -0.5875115296
 C         -3.5020541792       -0.9498762958       -0.0076047892
 C         -4.2080559397        0.3153976260       -0.2706936006
 C         -3.6021630305        1.2670688621       -1.0049784388
 C         -4.0776391090        2.6313564586       -1.4592214675
 C         -5.3119912434        3.2763062745       -0.8347234020
 C         -5.1509124384        3.6775441984        0.6311715394
 H         -6.1173942559        4.0308043819        0.9970869205
 H         -4.4481368259        4.5127531238        0.6876245742
 C         -4.6375375789        2.5826264561        1.5632395483
 H         -4.5655916086        3.0064656695        2.5687422961
 H         -3.6269547244        2.2912113936        1.2678685370
 C         -5.5112579138        1.3326023342        1.6480559160
 H         -6.5322160277        1.6151907240        1.9118138151
 H         -5.1163642739        0.7109278020        2.4561743997
 C         -5.5542161791        0.4664940151        0.3773141909
 H         -6.2827487308        0.8453897193       -0.3352769343
 H         -5.8697703228       -0.5400504651        0.6666665934
 H         -6.1778869690        2.6332703542       -0.9611424732
 H         -5.5084418024        4.1879708449       -1.4054713072
 H         -4.2418204156        2.5435633057       -2.5389319606
 H         -3.2207780181        3.3008335022       -1.3319221386
 O         -2.3573316646        1.0810370947       -1.5323577664
 C         -1.6333805854       -0.0838826832       -1.3382821236
 O         -0.5152566781       -0.0762531684       -1.8889802667
 O         -4.0450233984       -1.8430060374        0.6958372380
 C         -1.4574088051       -2.3880876491       -0.3096581106
 C         -0.3270449685       -2.0506848634        0.6307099058
 C         -0.5702449763       -1.9948625071        2.0002307204
 C          0.4191619750       -1.5907213492        2.8772719648
 C          1.6678905266       -1.2226795812        2.4071397907
 C          1.9159543318       -1.2674606581        1.0423126284
 C          0.9295748535       -1.6967425187        0.1647667864
 H          1.1300882715       -1.7084923939       -0.8948358454
 N          3.1778925234       -0.8728039437        0.5497832924
 S          3.7307234515        0.6244669810        1.1115497817
 O          4.3769605144        0.4170387554        2.3844622765
 O          2.6562097462        1.5927890187        1.1055504148
 C          4.9471103123        1.0332955674       -0.1245611855
 C          4.5239828323        1.6436195211       -1.2905052319
 C          5.4598562852        1.9402288111       -2.2686775033
 C          6.7943950763        1.6204293072       -2.0665519700
 C          7.2028336295        1.0068772065       -0.8919081243
 C          6.2724057106        0.7080623418        0.0909857360
 H          6.5419958601        0.2380550687        1.0222454145
 H          8.2412075455        0.7612432763       -0.7388287879
 H          7.5195269495        1.8532770383       -2.8302472700
 H          5.1438088989        2.4179644353       -3.1821913069
 H          3.4773476352        1.8813330765       -1.4038281651
 H          3.1871609689       -0.8807642731       -0.4622891100
 H          2.4422636262       -0.8786825797        3.0740028620
 H          0.2155335718       -1.5513631214        3.9370368267
 H         -1.5544476089       -2.2516819106        2.3668186188
 H         -2.1653898767       -3.0353901439        0.2244926533
 C         -1.0163131690       -3.0877062034       -1.5776496622
 C         -0.5394753191       -4.5064650685       -1.5003834122
 C         -1.8599677908       -4.1931544752       -2.1352129143
 H         -1.9512151507       -4.2791518160       -3.2075938310
 H         -2.7604094279       -4.4538972021       -1.5987612760
 H          0.2775319879       -4.8116401112       -2.1359004679
 H         -0.5422635094       -4.9785193167       -0.5296011266
 H         -0.5358712966       -2.4285790843       -2.2898753684
