  62
        -98.93690090
 C         -2.0281721599       -0.7824897007        0.5669578594
 C         -2.7669263701        0.2956692287        1.1176423203
 C         -4.2057814601        0.3509828887        0.8092136204
 C         -4.7435309699       -0.6180763907        0.0488435495
 C         -6.1667295799       -0.7367437505       -0.4218606006
 C         -6.3352551600       -0.0994367694       -1.8114936200
 C         -6.6419983503        1.3974846906       -1.8001324488
 H         -7.6591912603        1.5526677201       -1.4343805386
 H         -6.6098140803        1.7439331414       -2.8356534485
 C         -5.6865160304        2.2545800000       -0.9657096880
 H         -5.7637844906        3.2843933103       -1.3200269571
 H         -4.6575544304        1.9318799403       -1.1356790383
 C         -6.0021742004        2.2218199687        0.5371680719
 H         -6.9807863004        1.7660905284        0.6866983016
 H         -6.0765842506        3.2442991383        0.9135567028
 C         -4.9605042903        1.5059728281        1.4090526513
 H         -5.4414177203        1.1662856272        2.3327585910
 H         -4.1846238304        2.2181105280        1.7078345820
 H         -7.1489180899       -0.6070622791       -2.3334195505
 H         -5.4185458900       -0.2831237987       -2.3776171602
 H         -6.8496910900       -0.2969397613        0.2987274598
 H         -6.3787653297       -1.8049893105       -0.5013488815
 O         -4.0030512998       -1.6399734701       -0.4556506613
 C         -2.6413262898       -1.7508813401       -0.2284122714
 O         -2.1258922596       -2.7383079395       -0.7876190423
 O         -2.2411190103        1.1827023482        1.8445656711
 C         -0.5493098199       -0.8328333607        0.9049724894
 C          0.3210766900       -0.2520387096       -0.1842529201
 C          0.2312914001       -0.6835190085       -1.5038043905
 C          1.0565774800       -0.1460604675       -2.4745514900
 C          2.0046504498        0.8075449623       -2.1458898592
 C          2.1113610697        1.2352790312       -0.8288695888
 C          1.2625599798        0.7145643203        0.1384493607
 H          1.3536249898        1.0682607494        1.1541753410
 N          3.0847577496        2.1807450811       -0.4449541880
 S          4.2331921397        1.6703579703        0.6647488815
 O          3.5975015197        1.3603577291        1.9183402313
 O          5.2313100195        2.7154706505        0.6863672224
 C          4.9134905199        0.1943031911       -0.0718771597
 C          6.0502566999        0.3022663319       -0.8492307796
 C          6.5347134601       -0.8263301774       -1.4903462506
 C          5.8691774703       -2.0352687277       -1.3544307416
 C          4.7270108203       -2.1260274785       -0.5737928517
 C          4.2406991601       -1.0025924992        0.0762583193
 H          3.3560197001       -1.0412494998        0.6906513792
 H          4.2067965705       -3.0647473887       -0.4704318425
 H          6.2420763905       -2.9128432772       -1.8585827524
 H          7.4242411901       -0.7593785268       -2.0957702005
 H          6.5358832597        1.2618298921       -0.9249097788
 H          3.5502823595        2.6215188918       -1.2265993176
 H          2.6552410898        1.2192521031       -2.9027802989
 H          0.9691706201       -0.4829547767       -3.4962637203
 H         -0.4911200098       -1.4431417384       -1.7594787611
 H         -0.4368645900       -0.1909828314        1.7898104999
 C         -0.0533856597       -2.2219719309        1.2615159982
 C          1.1502278003       -2.3575358715        2.1435971181
 C         -0.2082375696       -2.7169369522        2.6662667278
 H         -0.4451396594       -3.7586105823        2.8217308469
 H         -0.6710158297       -2.0528163628        3.3820152383
 H          1.8484758105       -3.1563061812        1.9447610674
 H          1.6099363502       -1.4517608117        2.5134230089
 H         -0.1807347396       -2.9404608003        0.4622286576
