  62
        -98.94444230
 C         -1.8347004919       -1.1781887677        0.1100824384
 C         -1.1631169527       -1.9701115864       -0.8503113477
 C          0.0531665072       -2.6784252718       -0.4054243503
 C          0.4096939191       -2.5999038825        0.8898559471
 C          1.6121732301       -3.1955168633        1.5731457012
 C          2.9050363349       -2.4203202321        1.2797932519
 C          3.1228946688       -2.0695085850       -0.1894149040
 H          4.0344076527       -1.4681727237       -0.2558273930
 H          2.3066774717       -1.4372173691       -0.5455546037
 C          3.2845163653       -3.2653483703       -1.1262575395
 H          4.1149866097       -3.8846599304       -0.7794391649
 H          3.5536258734       -2.8652571975       -2.1073927024
 C          2.0504427573       -4.1548235268       -1.3042808380
 H          1.9333485204       -4.8449179522       -0.4726378268
 H          2.2185678278       -4.7676835159       -2.1946698463
 C          0.7512695485       -3.3908148679       -1.5371005621
 H          0.0066211023       -4.0777398320       -1.9574203752
 H          0.9152274856       -2.6318101881       -2.3124132959
 H          3.7484295413       -3.0120580745        1.6402994388
 H          2.8798151826       -1.4845319152        1.8436257749
 H          1.7208554730       -4.2410370859        1.3012581655
 H          1.4156328362       -3.1486764238        2.6465059566
 O         -0.3175451690       -1.8893369147        1.7991970458
 C         -1.4046345218       -1.1132178625        1.4339690309
 O         -1.8862660937       -0.4393803431        2.3639708454
 O         -1.5529443100       -2.0719725160       -2.0457704879
 C         -2.9763787021       -0.2849950263       -0.3465402981
 C         -2.4881479309        1.1432838900       -0.2821452454
 C         -3.0980302801        2.1440136687        0.4616723484
 C         -2.5415377988        3.4111940876        0.5126145547
 C         -1.3658400882        3.6999011828       -0.1555138858
 C         -0.7517105585        2.7072164097       -0.9124657357
 C         -1.3293130217        1.4504763003       -0.9869943310
 H         -0.8533378608        0.6878860435       -1.5865389174
 N          0.4429017439        2.9640256026       -1.6106808202
 S          1.7439242709        1.9200618699       -1.4783418378
 O          2.8288645645        2.6135908503       -2.1373841519
 O          1.4011075166        0.6245070464       -2.0031289878
 C          2.0784171450        1.8162871353        0.2686173280
 C          3.0736940141        2.5998962621        0.8191540095
 C          3.2881324491        2.5455251539        2.1869992045
 C          2.4990241999        1.7247823023        2.9794768050
 C          1.5001844794        0.9481223303        2.4123674449
 C          1.2899624733        0.9913161017        1.0436350428
 H          0.5240178744        0.3948295523        0.5736426626
 H          0.8717197000        0.3118997853        3.0167513266
 H          2.6614559739        1.6867534171        4.0451297639
 H          4.0657751160        3.1448801295        2.6323634164
 H          3.6628754319        3.2222091240        0.1652082963
 H          0.7636141443        3.9192977664       -1.5379705888
 H         -0.9255610777        4.6837161830       -0.0972100203
 H         -3.0232533197        4.1812158081        1.0956574130
 H         -4.0016768557        1.9307089636        1.0080469939
 H         -3.1411797857       -0.5414030200       -1.4034742997
 C         -4.2498346198       -0.5433718258        0.4261390169
 C         -5.5723409941       -0.1750450801       -0.1752181979
 C         -5.1818139943       -1.6160190566       -0.0488780911
 H         -5.6834222120       -2.2255569431        0.6876237803
 H         -4.9068551704       -2.1534254111       -0.9449856543
 H         -6.3471910421        0.2035304749        0.4738686970
 H         -5.5669808115        0.2663866726       -1.1604520154
 H         -4.1235653788       -0.4316320184        1.4964008520
