  62
        -98.94532356
 C         -1.5681801575       -0.9825065268        0.3105309529
 C         -2.8867699727       -1.1505962836        0.8010866750
 C         -3.9676957971       -0.7996336160       -0.1257255194
 C         -3.6691886341       -0.3480388242       -1.3574091130
 C         -4.6598579105        0.0447767601       -2.4196987567
 C         -5.1836693906        1.4810102106       -2.2821691842
 C         -6.1628457908        1.7098039701       -1.1298946366
 H         -6.6151391096        2.6914249366       -1.2846086579
 H         -6.9629385985        0.9708207513       -1.1827320317
 C         -5.5204851550        1.6774919932        0.2639986363
 H         -5.8844866456        2.5230268675        0.8521587169
 H         -4.4384740127        1.7974990012        0.1692281164
 C         -5.8107788846        0.4089394108        1.0662208468
 H         -6.8796802788        0.3489669516        1.2825712349
 H         -5.2778990736        0.4761914335        2.0180674146
 C         -5.3787074231       -0.8893940715        0.3723337724
 H         -5.4219099976       -1.6995013388        1.1043399228
 H         -6.0575950798       -1.1215739941       -0.4477350396
 H         -5.6903215028        1.7339370862       -3.2164894797
 H         -4.3301083786        2.1548436056       -2.1750063886
 H         -5.4986713726       -0.6518014182       -2.4153882843
 H         -4.1402410263       -0.0413729174       -3.3764121483
 O         -2.3901319072       -0.2111030535       -1.7962282902
 C         -1.3092076974       -0.5034172743       -0.9740932885
 O         -0.2010014260       -0.3128474262       -1.5091040984
 O         -3.1471334950       -1.5757029570        1.9583271222
 C         -0.4090661966       -1.2866138126        1.2455039697
 C          0.2488599820        0.0183067382        1.6224961786
 C         -0.4668271037        0.9340230010        2.3912383438
 C          0.0883078007        2.1502379186        2.7369542744
 C          1.3620527412        2.4868115163        2.3091854816
 C          2.0814722713        1.5847457203        1.5373630465
 C          1.5288333244        0.3526512143        1.2131724015
 H          2.1041934207       -0.3403577909        0.6265166707
 N          3.3837008464        1.8789259701        1.0917385385
 S          3.6861419706        1.7710469680       -0.5619578985
 O          4.9005328145        2.5400206349       -0.7475460878
 O          2.5443528983        2.2051088276       -1.3319627244
 C          4.0520664582        0.0535826609       -0.8474447234
 C          3.2105747946       -0.7139103060       -1.6285573065
 C          3.5272089039       -2.0488423108       -1.8310184710
 C          4.6673389761       -2.5872591836       -1.2541575125
 C          5.5014168785       -1.7999614880       -0.4741352681
 C          5.1943077632       -0.4647650628       -0.2688707550
 H          5.8169479799        0.1849937819        0.3231504144
 H          6.3857112435       -2.2232829697       -0.0258083098
 H          4.9041055671       -3.6277294122       -1.4130252023
 H          2.8739418844       -2.6610865407       -2.4328209787
 H          2.3133542709       -0.2698905962       -2.0327218134
 H          3.7481504599        2.7528928149        1.4459972214
 H          1.7936989224        3.4420234931        2.5689705204
 H         -0.4757693061        2.8482118773        3.3375263473
 H         -1.4665882697        0.6758011540        2.7127187777
 H         -0.8715775966       -1.7058100923        2.1505936378
 C          0.5412512349       -2.3075410555        0.6590902267
 C          1.5218000423       -3.0080499133        1.5502280571
 C          0.3563070314       -3.7586252452        0.9814028065
 H          0.5382639777       -4.4849426599        0.2038747509
 H         -0.4544573038       -4.0237299169        1.6441863517
 H          2.5079444710       -3.2160566652        1.1634452202
 H          1.5022322185       -2.7628079731        2.6011740575
 H          0.8596792737       -2.0600499980       -0.3460633042
