  62
        -98.94186350
 C         -1.0783618080       -1.2834167097        0.0590182925
 C         -1.5765746772       -0.2692746397        0.9064802861
 C         -2.5596816867        0.6643530820        0.3258699146
 C         -2.9189805819        0.5047794368       -0.9613736094
 C         -3.9296512933        1.3053077139       -1.7367987985
 C         -5.3810355575        0.9310711528       -1.3821414711
 C         -5.6407101242        0.6617969037        0.0989133597
 H         -6.6490080807        0.2493728446        0.1896738388
 H         -4.9457159986       -0.1031797619        0.4503185134
 C         -5.5548338170        1.8843755780        1.0093881968
 H         -6.3318405852        2.5969777544        0.7227925788
 H         -5.7683095718        1.5507836576        2.0280337878
 C         -4.2142287735        2.6182118120        1.0147148955
 H         -4.2498518819        3.3575373075        1.8206304410
 H         -4.0773993528        3.1749991751        0.0914133597
 C         -2.9968736149        1.7400953274        1.2911781581
 H         -2.1264778853        2.3962970529        1.4236481797
 H         -3.1326217830        1.2350703487        2.2542302528
 H         -6.0394401149        1.7280497016       -1.7311502310
 H         -5.6332061818        0.0205496431       -1.9308086482
 H         -3.7465187807        2.3660756037       -1.5889077415
 H         -3.7607325862        1.0873383569       -2.7937373081
 O         -2.4172912579       -0.4924512839       -1.7429771808
 C         -1.4750309499       -1.3903063534       -1.2732739341
 O         -1.0848016819       -2.2191448673       -2.1181429401
 H          0.9060939833       -0.0490639694       -0.6520108988
 C          1.6179335598       -0.8585046496       -0.6807695102
 C          1.2846151821       -2.0858083772       -0.1268543724
 C          2.2082154648       -3.1217747320       -0.2163774815
 C          3.4211109495       -2.9262329563       -0.8530713272
 C          3.7505799822       -1.6973519380       -1.3962020926
 C          2.8353765485       -0.6546009340       -1.3108148313
 N          3.1208775391        0.6050312801       -1.8536481481
 S          2.4707504121        1.9932518106       -1.1963314062
 O          1.0716397451        2.1085393429       -1.5275844746
 O          3.3250187231        3.0493499376       -1.6976034989
 C          2.6896086906        1.8259264158        0.5654859000
 C          1.5939506269        1.6819967094        1.3900620731
 C          1.7917929956        1.4959145812        2.7487034396
 C          3.0799453977        1.4671147987        3.2588409689
 C          4.1729888567        1.6308264308        2.4204075005
 C          3.9795276218        1.8068890284        1.0603841873
 H          4.8038306633        1.9420662441        0.3792824726
 H          5.1732134783        1.6148321854        2.8222719106
 H          3.2310525246        1.3176705298        4.3162840252
 H          0.9321068064        1.3550558415        3.3845658057
 H          0.6019219030        1.7031280917        0.9664872531
 H          4.0645808927        0.7350726287       -2.1850040920
 H          4.6974803879       -1.5466355953       -1.8910065857
 H          4.1247437605       -3.7416940999       -0.9221700616
 H          1.9731660565       -4.0845254121        0.2072413561
 C         -0.0331222155       -2.2393159665        0.5963374835
 H          0.1258748235       -1.9366818387        1.6434776662
 C         -0.5503152194       -3.6646565478        0.5764536475
 C         -0.1926427123       -4.6245734212        1.6706809693
 C         -1.5823640649       -4.0720505466        1.5841197100
 H         -2.3833396369       -4.7234068004        1.2682149192
 H         -1.8840387162       -3.3300378440        2.3091272858
 H         -0.0397292398       -5.6622922603        1.4148176495
 H          0.4417061941       -4.2651715329        2.4668319439
 H         -0.6568050421       -4.0510620839       -0.4309064984
 O         -1.2165431948       -0.1430446844        2.1091339395
