  62
        -98.94390921
 C         -1.5883157681       -1.4358732822       -0.2162032703
 C         -2.7458178199       -0.9232887091        0.4065559032
 C         -3.2896694600        0.3389768398       -0.1290463026
 C         -2.6635936102        0.9236503075       -1.1678459728
 C         -2.9906849891        2.2328351834       -1.8354045815
 C         -2.5297262312        3.4379033007       -1.0015279215
 C         -2.8827762501        3.3624002444        0.4812723097
 H         -2.4059052937        2.4789295173        0.9111253997
 H         -2.4333489458        4.2307989510        0.9712295507
 C         -4.3758291920        3.3604949828        0.8031035107
 H         -4.8299286348        4.2641302645        0.3902906042
 H         -4.4694102195        3.4093938953        1.8910598346
 C         -5.1713687267        2.1476039148        0.3137276681
 H         -6.1304321865        2.1551431164        0.8400096042
 H         -5.4002552003        2.2278177149       -0.7455708345
 C         -4.5234446296        0.7991562197        0.6100861666
 H         -4.2717527863        0.7497550840        1.6759328598
 H         -5.2707757288        0.0113283364        0.4543409535
 H         -1.4402698362        3.5000832047       -1.0706043257
 H         -2.9543385721        4.3444578222       -1.4371729490
 H         -4.0529901824        2.2943962191       -2.0517857301
 H         -2.4529921530        2.2437631132       -2.7861753549
 O         -1.5586146197        0.3808499591       -1.7516697273
 C         -0.9774067374       -0.7779447903       -1.2818393848
 O          0.0529109195       -1.1271707595       -1.8919632541
 O         -3.3036637538       -1.4891516147        1.3884138196
 C         -0.9387294028       -2.6922145391        0.3321736096
 C          0.4903541459       -2.4030175793        0.7223615683
 C          1.5327868408       -3.2997245557        0.5215891694
 C          2.8279584519       -2.9640365349        0.8776876107
 C          3.1161706372       -1.7224989177        1.4144473187
 C          2.0786943519       -0.8229228768        1.6278044741
 C          0.7785182243       -1.1795908211        1.3135820016
 H         -0.0137591260       -0.4669654233        1.4913467463
 N          2.3106864763        0.4747150209        2.1352972337
 S          2.0102400461        1.7312575970        1.0608320574
 O          2.3990343349        2.9331254603        1.7687899991
 O          0.6474144744        1.6737221332        0.6038516714
 C          3.1639857488        1.4304799149       -0.2665426746
 C          2.8565407685        0.5044875279       -1.2429650715
 C          3.8110712384        0.2162611721       -2.2076380728
 C          5.0440728630        0.8485931179       -2.1791014989
 C          5.3350595100        1.7779499833       -1.1913371762
 C          4.3898593170        2.0678711034       -0.2215380323
 H          4.5685549076        2.7837736381        0.5646513631
 H          6.2931178850        2.2719762201       -1.1719101987
 H          5.7806514567        0.6163169126       -2.9320652582
 H          3.5759626778       -0.5065101175       -2.9724391579
 H          1.8887407816        0.0263116058       -1.2545725965
 H          3.2362575981        0.5963888427        2.5250196617
 H          4.1303046137       -1.4479344503        1.6631443138
 H          3.6265533348       -3.6713603888        0.7146505846
 H          1.3312088661       -4.2613136533        0.0784089900
 H         -1.5051918949       -2.9445759167        1.2415641559
 C         -1.0692078616       -3.8326346590       -0.6569244765
 C         -1.1990839146       -5.2465133118       -0.1763652488
 C         -2.3831860831       -4.5443476475       -0.7675786262
 H         -2.7281294998       -4.8419654427       -1.7463657846
 H         -3.1742450817       -4.2240305754       -0.1052071950
 H         -0.7325353131       -6.0316019799       -0.7521450709
 H         -1.1936729887       -5.4156269697        0.8898272200
 H         -0.5207618472       -3.6489576689       -1.5741735205
