  62
        -98.94513525
 C         -1.8769256092       -1.1918542213       -0.2564716396
 C         -2.8920721298       -0.4384034621        0.3718039505
 C         -3.1364588507        0.9099441478       -0.1672410392
 C         -2.3961645709        1.3427191885       -1.2029540191
 C         -2.4222634618        2.7034642287       -1.8418861688
 C         -1.3605274625        3.6121845393       -1.1974524585
 C         -1.8456834031        4.3939205787        0.0215664116
 H         -0.9777711835        4.9081836492        0.4411598118
 H         -2.5635009937        5.1547036582       -0.2944360883
 C         -2.4798570126        3.5358910880        1.1191826614
 H         -1.8831054120        2.6305024984        1.2519164612
 H         -2.4256867431        4.0944381978        2.0561994715
 C         -3.9471016423        3.1786359870        0.8364322612
 H         -4.3121216527        3.8031782069        0.0209264013
 H         -4.5521586726        3.4263126564        1.7112237112
 C         -4.2188960413        1.7012206369        0.5152311108
 H         -4.4120402210        1.1578808065        1.4457632907
 H         -5.1331986712        1.6301064164       -0.0838324992
 H         -0.5122395121        2.9873808598       -0.9035673686
 H         -1.0047721430        4.3265900797       -1.9431047384
 H         -2.1680848216        2.5603302991       -2.8942168188
 H         -3.4123864921        3.1451382479       -1.7758886388
 O         -1.4429782703        0.5749873393       -1.7952183892
 C         -1.1329914595       -0.6834630405       -1.3195681594
 O         -0.1992594690       -1.2484351097       -1.9233532095
 H         -0.2076602297       -0.5891304705        1.5496037806
 C          0.4572638309       -1.4077833500        1.3159387905
 C         -0.0375276283       -2.5394669502        0.6800716002
 C          0.8398968325       -3.5828554895        0.4139049201
 C          2.1805553724       -3.4737660286        0.7436281502
 C          2.6791616515       -2.3176160484        1.3158846405
 C          1.8054253408       -1.2743344691        1.5988358706
 N          2.2525596199       -0.0537212889        2.1491972709
 S          2.0946810890        1.3000130812        1.1682860712
 O          2.6364898581        2.3941899614        1.9458571415
 O          0.7305610989        1.4399033803        0.7335638711
 C          3.1796808593        0.9650893523       -0.2074181888
 C          2.7548244200        0.1311409222       -1.2220639690
 C          3.6422332303       -0.1781731370       -2.2424122890
 C          4.9263627599        0.3433387239       -2.2304854288
 C          5.3362727492        1.1800830640       -1.2029311886
 C          4.4579017289        1.4903904632       -0.1780933986
 H          4.7285415484        2.1382862132        0.6401139616
 H          6.3342659189        1.5878557047       -1.1964319884
 H          5.6097272801        0.0969769746       -3.0277931788
 H          3.3143464608       -0.8285962470       -3.0374287892
 H          1.7491084502       -0.2609880685       -1.2200254692
 H          3.1986107099       -0.0902893783        2.5047525010
 H          3.7309760514       -2.2187617777        1.5387405406
 H          2.8507437430       -4.2918730581        0.5282549001
 H          0.4760399531       -4.4787997297       -0.0621344102
 C         -1.4985927583       -2.5523064211        0.3011905901
 H         -2.0989829282       -2.6763176918        1.2149386801
 C         -1.8587045574       -3.6524177912       -0.6752710101
 C         -2.2373454265       -5.0146428316       -0.1776296605
 C         -3.2832398271       -4.1101250722       -0.7543805803
 H         -3.6960994368       -4.3460469123       -1.7236332004
 H         -3.9889158975       -3.6450449228       -0.0815025403
 H         -1.9351946258       -5.8766456012       -0.7530514106
 H         -2.2409270964       -5.1740027718        0.8900299195
 H         -1.3042528574       -3.5792127806       -1.6041976401
 O         -3.5568421395       -0.8690501828        1.3554322003
