  62
        -98.94110511
 C         -1.6688855605       -0.3697656908        0.9519000073
 C         -2.8967666342       -0.9967585860        0.6282378759
 C         -4.0518852596       -0.0998074606        0.4625104427
 C         -3.8923115665        1.2273436073        0.6078429759
 C         -4.9687954440        2.2518626593        0.3992117421
 C         -4.9897811442        2.7480410158       -1.0534793995
 C         -4.9805136317        1.6252047902       -2.0909214704
 H         -5.0279339442        2.0930127725       -3.0767111431
 H         -4.0275228824        1.0940501007       -2.0334220314
 C         -6.1303734410        0.6184064143       -1.9474586307
 H         -6.9259231396        1.0485248495       -1.3378799304
 H         -6.5500587954        0.4225244623       -2.9364829149
 C         -5.7190812256       -0.7338347807       -1.3623419929
 H         -4.8606431923       -1.1257950338       -1.9136688244
 H         -6.5472604454       -1.4329353856       -1.5064359161
 C         -5.3732167914       -0.7356173876        0.1319767105
 H         -6.1795502344       -0.2640485592        0.6972207028
 H         -5.2931113149       -1.7785114158        0.4521508907
 H         -4.1090605947        3.3728943640       -1.2185100975
 H         -5.8773894212        3.3677104418       -1.1935138312
 H         -4.7710594683        3.0977485170        1.0596600894
 H         -5.9321068524        1.8178255021        0.6598650789
 O         -2.6993019181        1.7952846603        0.9173178808
 C         -1.5675918694        1.0190422731        1.0903564754
 O         -0.5412840828        1.6705994196        1.3687981958
 O         -3.0503910574       -2.2382452403        0.4788028125
 C         -0.3681923237       -1.1289006104        1.1593218937
 C          0.2975499049       -1.4467674657       -0.1583303166
 C         -0.2920982500       -2.2965842267       -1.0882175687
 C          0.3537766076       -2.5838981290       -2.2764752567
 C          1.6014466105       -2.0508240096       -2.5500140086
 C          2.1973148460       -1.1980502130       -1.6284208465
 C          1.5354035422       -0.8920340147       -0.4477381066
 H          1.9936839189       -0.2160760671        0.2578430291
 N          3.4522275940       -0.6292621668       -1.8818327729
 S          4.5394905500       -0.3720268942       -0.6373579576
 O          5.8258142499       -0.2980239425       -1.2968411509
 O          4.4133026256       -1.3719729753        0.3969375338
 C          4.1228402417        1.2379018190       -0.0046109906
 C          4.0335914607        2.2882405047       -0.8961782951
 C          3.7288250425        3.5504866961       -0.4138265800
 C          3.5222074528        3.7407615999        0.9440832198
 C          3.6201011598        2.6769996625        1.8268928359
 C          3.9243235407        1.4120216361        1.3501534462
 H          4.0037587295        0.5562346294        2.0025818863
 H          3.4547189876        2.8260191051        2.8819037714
 H          3.2807579880        4.7232117847        1.3180577528
 H          3.6502328355        4.3814585394       -1.0963794866
 H          4.2032011447        2.1023625136       -1.9436935626
 H          3.9061393710       -0.9470178560       -2.7254881997
 H          2.1107325490       -2.2899484563       -3.4713683719
 H         -0.1132699328       -3.2417117361       -2.9940861870
 H         -1.2608318768       -2.7202368447       -0.8725794054
 H          0.2929245461       -0.4384766545        1.7007755985
 C         -0.5188086300       -2.3898654600        1.9893475449
 C          0.7158453119       -3.0252220106        2.5524128941
 C         -0.2558304069       -2.3364353507        3.4623958556
 H         -0.8661916983       -2.9404429068        4.1170113398
 H          0.0294656192       -1.3845341945        3.8865528126
 H          0.7717481048       -4.1027562796        2.5816154292
 H          1.6633148808       -2.5456031406        2.3520925789
 H         -1.3096112033       -3.0427678536        1.6455245779
