  62
        -98.94037574
 C          1.8149666155        0.8611756902       -0.8167541404
 C          2.0451788839        0.3371699782        0.4795424315
 C          3.4571456746        0.2000106770        0.8668807795
 C          4.4286753862        0.6136895701        0.0345930918
 C          5.9087434650        0.5590832170        0.2997697606
 C          6.5504125093       -0.7979321163       -0.0205137941
 C          6.2186915418       -1.9223613049        0.9614499804
 H          6.9004005760       -2.7473334602        0.7450436830
 H          6.4260082561       -1.5875035875        1.9783247078
 C          4.7755900250       -2.4378975966        0.8708095635
 H          4.3341229415       -2.1197001987       -0.0764274150
 H          4.7788258164       -3.5301517687        0.8704968642
 C          3.8683983088       -1.9876823288        2.0159804697
 H          2.8649439691       -2.3801165509        1.8329100986
 H          4.2285896658       -2.4107038420        2.9563261543
 C          3.7604254352       -0.4654072482        2.1753434365
 H          4.6800757121       -0.0655483437        2.6019658977
 H          2.9338559724       -0.2482822777        2.8563527852
 H          6.2539975362       -1.0952021445       -1.0291836126
 H          7.6332979391       -0.6534962926       -0.0222739172
 H          6.1047733421        0.8192779718        1.3403702322
 H          6.3669595150        1.3163350512       -0.3402157257
 O          4.1630494155        1.1707277573       -1.1775856018
 C          2.8610619678        1.2966228602       -1.6341788702
 O          2.7650468570        1.8178943325       -2.7636429167
 O          1.1358823977        0.0003827668        1.2795621880
 C          0.4094926116        1.0441647440       -1.3621250961
 C         -0.4782591008        1.6703754748       -0.3147772677
 C         -0.0886905670        2.8817362404        0.2526856457
 C         -0.8653156248        3.4938206638        1.2157361533
 C         -2.0636920104        2.9266379170        1.6144667550
 C         -2.4670785346        1.7258638384        1.0470081870
 C         -1.6724376043        1.1013994720        0.0953742348
 H         -1.9940529357        0.1570375385       -0.3092431128
 N         -3.6734366815        1.1157141822        1.4248372596
 S         -4.6590468418        0.4695251909        0.2370193906
 O         -4.5507591629        1.2063850014       -1.0011353897
 O         -5.9765750549        0.4273699082        0.8361074264
 C         -4.0827246101       -1.1991557922        0.0096367797
 C         -3.9672452442       -1.7025593165       -1.2709593698
 C         -3.5617310283       -3.0170243920       -1.4414053626
 C         -3.2811588631       -3.8012022825       -0.3327811244
 C         -3.4022553723       -3.2800783840        0.9465503263
 C         -3.8104221527       -1.9678692870        1.1236725532
 H         -3.9149642665       -1.5304274006        2.1023388524
 H         -3.1790095152       -3.8921680177        1.8054712449
 H         -2.9628713718       -4.8230177314       -0.4676251450
 H         -3.4645229137       -3.4225486254       -2.4361310374
 H         -4.1859941688       -1.0542857193       -2.1047233665
 H         -4.2069844189        1.6217789693        2.1166386049
 H         -2.6768229503        3.4072486860        2.3619623144
 H         -0.5424546918        4.4262895419        1.6543779008
 H          0.8431990304        3.3305580092       -0.0655006569
 H          0.5154894257        1.7735310578       -2.1831179793
 C         -0.1855162917       -0.2154752976       -1.9749247330
 C          0.6921130803       -1.2784482808       -2.5635240693
 C         -0.0768945688       -1.5526864040       -1.3079792784
 H         -0.9244570341       -2.2204265112       -1.3589211068
 H          0.4584396127       -1.5979524947       -0.3734047836
 H          0.3744334485       -1.7540583143       -3.4791426375
 H          1.7613882444       -1.1396186362       -2.4931306506
 H         -1.1095850167       -0.0076560664       -2.5070394165
