  62
        -98.93524980
 C         -2.1372107518       -0.8794111426        0.6596675929
 C         -1.8667974909       -0.1338474820       -0.5126002192
 C         -1.8892190410        1.3378202176       -0.3864153328
 C         -2.1811333000        1.8859437469        0.8064184135
 C         -2.3087875949        3.3460245756        1.1495984994
 C         -3.6130469268        3.9705829740        0.6230051242
 C         -4.0129236206        3.5455606696       -0.7880208842
 H         -4.0821673420        2.4569040298       -0.8278870537
 H         -5.0127253528        3.9421155175       -0.9832666652
 C         -3.0910970812        4.0348000636       -1.9022166364
 H         -3.0827543062        5.1271439834       -1.9056249057
 H         -3.5202373571        3.7014157057       -2.8503787398
 C         -1.6444500502        3.5427253352       -1.8346319923
 H         -1.0891348419        4.0688688477       -1.0626875719
 H         -1.1673571067        3.7959344939       -2.7861036708
 C         -1.4848989546        2.0352368710       -1.6616557838
 H         -2.0185470261        1.5216453121       -2.4694736335
 H         -0.4263058795        1.7758569533       -1.7961378212
 H         -3.5165355901        5.0565894927        0.6652232470
 H         -4.4205150827        3.6764608559        1.2977796954
 H         -1.4390745502        3.8844868245        0.7835823426
 H         -2.3043188340        3.4137326673        2.2399215360
 O         -2.4604796054        1.1280321313        1.9071947436
 C         -2.3931444132       -0.2507756192        1.8779817182
 O         -2.5854090153       -0.7992654785        2.9838000329
 O         -1.6201361585       -0.6594303308       -1.6295799788
 C         -2.0010669273       -2.3932788173        0.6869005250
 C         -0.7365644381       -2.7795517702       -0.0431762997
 C         -0.6695113455       -3.7545342047       -1.0288466875
 C          0.5271521139       -4.0102198458       -1.6767671641
 C          1.6677231428       -3.2909602880       -1.3738401648
 C          1.6127854159       -2.3201031597       -0.3794089536
 C          0.4258372252       -2.0963721874        0.2946868764
 H          0.3928591417       -1.3372954419        1.0643061284
 N          2.7532182802       -1.5681653850       -0.0354420880
 S          2.5306154864        0.0629786796        0.3476530911
 O          2.0968388578        0.1652032886        1.7201401773
 O          1.6995705631        0.7124631825       -0.6399624274
 C          4.2125514075        0.6422114870        0.2124181976
 C          4.6127365889        1.3140661825       -0.9268917504
 C          5.9312109851        1.7290745119       -1.0324888336
 C          6.8228128671        1.4631020339       -0.0043350210
 C          6.4062332944        0.7882607859        1.1337985610
 C          5.0892354749        0.3720675847        1.2462167370
 H          4.7162929873       -0.1467334007        2.1138839211
 H          7.1013514776        0.5854756906        1.9324110840
 H          7.8482042520        1.7863279262       -0.0892181539
 H          6.2564546754        2.2567928647       -1.9144929746
 H          3.8817432449        1.5034319122       -1.6966863672
 H          3.4988346730       -1.6750391529       -0.7109229570
 H          2.5907943455       -3.4703525848       -1.9041237879
 H          0.5649586281       -4.7652269108       -2.4474947366
 H         -1.5579221230       -4.2939725957       -1.3132829563
 H         -1.8621592914       -2.6425439449        1.7531261542
 C         -3.2335115747       -3.1534913861        0.2203181263
 C         -4.5910175776       -2.5186640530        0.2529465386
 C         -3.9356683948       -2.8184232446       -1.0598836662
 H         -4.3316338508       -3.6285845001       -1.6546643171
 H         -3.5402702643       -1.9993908844       -1.6391784578
 H         -5.4305930975       -3.1231490856        0.5622081968
 H         -4.6532332341       -1.4884595893        0.5731610597
 H         -3.1919800444       -4.2028965463        0.4955104332
