  62
        -98.94647931
 C         -1.0753680451       -1.8503672007       -0.3071873932
 C         -0.2945147765       -2.0307776011        0.8634194897
 C          1.1034734273       -2.4387352584        0.6409385537
 C          1.5702866953       -2.6140536362       -0.6074761210
 C          2.9474675495       -3.0863275233       -0.9891602287
 C          4.0218172073       -1.9909860222       -1.0107202433
 C          4.4719180708       -1.4953079605        0.3638625299
 H          5.3801209708       -0.9084223682        0.2141890201
 H          4.7337200374       -2.3469615350        0.9925064093
 C          3.4351623341       -0.6206980633        1.0810427190
 H          2.7044196590       -0.2554320354        0.3569363083
 H          3.9213046004        0.2629691183        1.5020927007
 C          2.6894494327       -1.3044735689        2.2270526810
 H          1.9391308545       -0.6013421527        2.5991099691
 H          3.3853229991       -1.5173993353        3.0425145070
 C          1.9805808615       -2.6100061528        1.8439312427
 H          1.3414306349       -2.9059944472        2.6799161820
 H          2.7145029039       -3.3977569118        1.6691287917
 H          3.6533227072       -1.1453762552       -1.5956405068
 H          4.8919275989       -2.4019613783       -1.5276695941
 H          2.8603727171       -3.5016658355       -1.9956163877
 H          3.2564727289       -3.8833435148       -0.3116927038
 O          0.7944865903       -2.4146029490       -1.7060775183
 C         -0.5286501759       -2.0239043733       -1.5828977230
 O         -1.1145586541       -1.8715418663       -2.6731644501
 O         -0.7171938209       -1.8845030893        2.0395300392
 C         -2.5344021879       -1.4185350097       -0.3044822961
 C         -2.6386687406        0.0880515589       -0.3666146565
 C         -3.4452817656        0.7048370088       -1.3156897506
 C         -3.5148012541        2.0840409529       -1.3915625003
 C         -2.7556599144        2.8715188585       -0.5452538472
 C         -1.9430491129        2.2653326866        0.4061403007
 C         -1.9122863903        0.8816111517        0.5101876007
 H         -1.2977801052        0.4262229369        1.2718253242
 N         -1.1374661107        3.0420963982        1.2581142243
 S          0.4849168599        2.6549750233        1.4146538515
 O          0.6383130930        1.4457365486        2.1758680778
 O          1.0820638051        3.8458296612        1.9802506419
 C          1.0649903997        2.4380254871       -0.2586382151
 C          1.5922133107        3.5309617879       -0.9188676810
 C          1.9939287371        3.3910497727       -2.2372211294
 C          1.8495068588        2.1690659529       -2.8771693721
 C          1.3150017562        1.0819114566       -2.2034645676
 C          0.9218898597        1.2138837103       -0.8805838561
 H          0.5056661848        0.3809744541       -0.3352928227
 H          1.1889937043        0.1303477995       -2.6979792870
 H          2.1538583845        2.0588008492       -3.9060142098
 H          2.4135968577        4.2331987151       -2.7634196575
 H          1.6895932415        4.4605546296       -0.3817745603
 H         -1.2410880848        4.0381178240        1.1233053978
 H         -2.7870944814        3.9479463394       -0.6187622738
 H         -4.1485622705        2.5506366814       -2.1299133525
 H         -4.0075040026        0.0948430021       -2.0066563254
 H         -2.9637188696       -1.8153303014       -1.2354564372
 C         -3.3455722498       -1.9558593836        0.8572832365
 C         -4.8249288576       -2.1262258817        0.6931281827
 C         -3.9349582598       -3.3298210150        0.7680189895
 H         -3.9551060029       -3.9382091752        1.6595275909
 H         -3.7581280774       -3.8909489381       -0.1383249372
 H         -5.4630581135       -1.9053889628        1.5348553578
 H         -5.2572518247       -1.8769644861       -0.2640370527
 H         -2.9788786234       -1.6349645410        1.8232322171
