  62
        -98.94593310
 C         -1.6128361993       -1.3446541999        0.4155974101
 C         -1.4298354898       -0.1588832300       -0.3376199002
 C         -2.2045965204        1.0069697997        0.1138223695
 C         -2.9932014404        0.8975295096        1.1985379794
 C         -3.8737413309        1.9895845994        1.7322774891
 C         -5.2782977909        1.9224726886        1.1162712390
 C         -5.2794654407        1.8063560981       -0.4080148510
 H         -4.8482357102        0.8437192583       -0.6920855507
 H         -6.3224335207        1.7989496476       -0.7320693610
 C         -4.5264893812        2.9318632983       -1.1309521912
 H         -4.3940929016        3.7800222585       -0.4582705614
 H         -5.1344959213        3.2763434978       -1.9701102313
 C         -3.1685782309        2.5201447488       -1.7027552310
 H         -3.2844389205        1.6150360986       -2.3037769308
 H         -2.8272496213        3.3155373788       -2.3702060312
 C         -2.0564717209        2.2771885696       -0.6747312509
 H         -1.1143064508        2.1746117599       -1.2203401908
 H         -1.9797386913        3.1374994898       -0.0067283211
 H         -5.8292339813        2.8159010684        1.4160255887
 H         -5.7951688105        1.0517658184        1.5266800992
 H         -3.9556602409        1.8683519096        2.8138923591
 H         -3.4181169414        2.9545384895        1.5186114689
 O         -3.1123216599       -0.2488590102        1.9175717297
 C         -2.4360593193       -1.3982560400        1.5391507701
 O         -2.6376590589       -2.3826602799        2.2802587003
 H          0.6251904005       -1.0446306286        1.5630120702
 C          1.2202734308       -1.5302875685        0.7988923404
 C          0.5981695612       -2.3809330590       -0.1057078194
 C          1.3801310516       -3.0004787289       -1.0727529392
 C          2.7427863815       -2.7651217883       -1.1324849192
 C          3.3545556010       -1.9051417478       -0.2395796994
 C          2.5813517007       -1.2766268379        0.7283862404
 N          3.1862888602       -0.3885747074        1.6394276302
 S          4.1108791596        0.8674945529        1.0278313699
 O          5.3284540699        0.3282218533        0.4763218402
 O          4.2650780691        1.7886321033        2.1313343097
 C          3.1327224994        1.6135388421       -0.2616430903
 C          2.2556724389        2.6226027218        0.0819537694
 C          1.4672264887        3.1904019512       -0.9046309509
 C          1.5546007090        2.7275004909       -2.2084332107
 C          2.4346083995        1.7088804812       -2.5356098204
 C          3.2368054497        1.1466901618       -1.5561506802
 H          3.9419454901        0.3629463021       -1.7771318099
 H          2.4959978397        1.3478704709       -3.5494353503
 H          0.9316472389        3.1627489004       -2.9741170109
 H          0.7845301083        3.9864787809       -0.6533151611
 H          2.2182093287        2.9543507720        1.1075273493
 H          2.5432068800       -0.0286707875        2.3299341801
 H          4.4131252409       -1.7048871673       -0.2775513793
 H          3.3370572618       -3.2567294682       -1.8876529390
 H          0.9214771720       -3.6684417193       -1.7831898491
 C         -0.8892357587       -2.6136584997        0.0074989105
 H         -1.0615344584       -3.3390026296        0.8169015107
 C         -1.4996490083       -3.1575153003       -1.2700156394
 C         -1.5830184076       -4.6345028304       -1.5085649190
 C         -2.8236898980       -3.8547374309       -1.1958812993
 H         -3.5423294880       -3.6860310315       -1.9839148494
 H         -3.2682038380       -3.9672272309       -0.2173146193
 H         -1.4530651874       -5.0032105706       -2.5150187389
 H         -1.1929996374       -5.2892817800       -0.7438602488
 H         -1.3222820886       -2.5093657405       -2.1208198295
 O         -0.6597305598       -0.0757435799       -1.3279159801
