  62
        -98.94393309
 C         -1.7902087241       -0.6389994429        0.5654783363
 C         -3.0668791320       -0.6110541695        1.1756694052
 C         -4.2118629203       -0.5329365118        0.2617782004
 C         -4.0044973866       -0.5170667920       -1.0677236791
 C         -5.0702942094       -0.4671385317       -2.1287353729
 C         -5.5755522925        0.9480094838       -2.4413346470
 C         -6.4609262189        1.5753985502       -1.3638130966
 H         -6.9173114820        2.4652176096       -1.8021098262
 H         -7.2680312361        0.8868073498       -1.1116415412
 C         -5.7119080866        1.9833651242       -0.0874543575
 H         -4.6398830971        2.0282748024       -0.2937253192
 H         -6.0212933181        2.9874846395        0.2115796634
 C         -5.9484128663        1.0613640540        1.1089089183
 H         -5.3433016947        1.4223910171        1.9446813902
 H         -6.9977756571        1.1115755804        1.4078223113
 C         -5.5814910243       -0.4071498022        0.8574120097
 H         -5.5757504121       -0.9281408801        1.8180588485
 H         -6.3235940797       -0.8746724975        0.2105649500
 H         -4.7142364031        1.5940770044       -2.6269969595
 H         -6.1528047117        0.8908758297       -3.3670886214
 H         -4.6249585701       -0.8810445771       -3.0360079222
 H         -5.9101200790       -1.0975479736       -1.8351165648
 O         -2.7619361796       -0.5671965617       -1.6159159539
 C         -1.6251102674       -0.6092921778       -0.8196411009
 O         -0.5561270887       -0.6215858211       -1.4557018004
 O         -3.2396352869       -0.6498328498        2.4239803928
 C         -0.5614515637       -0.7127453085        1.4499749970
 C          0.3595457244        0.4629710350        1.2314841996
 C         -0.1585531977        1.7108823892        0.8988297179
 C          0.6739675695        2.7918120409        0.6765498161
 C          2.0461792247        2.6593937319        0.7978217340
 C          2.5728310833        1.4281456490        1.1580381541
 C          1.7349751763        0.3409231049        1.3731432253
 H          2.1653234943       -0.6106865459        1.6458860704
 N          3.9763361986        1.2971866277        1.2796373750
 S          4.8174394095        1.2303872368       -0.1703091371
 O          6.2133738567        1.1151228662        0.1854258366
 O          4.4481663884        2.3685763049       -0.9703297925
 C          4.2577301797       -0.2872344421       -0.9206903942
 C          3.0046880454       -0.3186904720       -1.4988972953
 C          2.5167350446       -1.5245544853       -1.9777012791
 C          3.2907471637       -2.6702465526       -1.8756857550
 C          4.5524010069       -2.6208581043       -1.3005124289
 C          5.0387176436       -1.4213067394       -0.8072757232
 H          6.0086246003       -1.3381147541       -0.3436928116
 H          5.1513956892       -3.5144789679       -1.2271559189
 H          2.9050047460       -3.6076219025       -2.2454399258
 H          1.5227651447       -1.5522080381       -2.3956238648
 H          2.4180160878        0.5830755947       -1.5673725938
 H          4.2531574269        0.5081126228        1.8485547295
 H          2.7129522179        3.4837533516        0.6055982850
 H          0.2506165919        3.7473853844        0.4053876802
 H         -1.2298486884        1.8242354146        0.8030129412
 H         -0.9438585482       -0.6597947455        2.4811495756
 C          0.1381815465       -2.0448427679        1.2576222745
 C          0.7964495805       -2.7393474675        2.4115831243
 C         -0.4813929964       -3.2769611887        1.8431087014
 H         -0.4509047410       -4.1922232687        1.2716743724
 H         -1.3893823146       -3.1494730028        2.4145532278
 H          1.7070164459       -3.2907327575        2.2298907895
 H          0.7536437698       -2.2599288872        3.3782169945
 H          0.5977491007       -2.1319475778        0.2792254880
