  62
        -98.93845472
 C         -1.9904952727       -1.1199724225       -0.0143947396
 C         -2.6314613374       -0.4080208469        1.0307885945
 C         -3.3060282784        0.8562398024        0.6844169798
 C         -3.2680591149        1.2754228619       -0.5937604930
 C         -3.8984001476        2.5034652559       -1.1951529390
 C         -5.4180274126        2.3635598061       -1.3797696569
 C         -6.1554285978        1.7492940695       -0.1929110493
 H         -7.1983069614        1.6078455230       -0.4882870109
 H         -5.7397899610        0.7615226960        0.0136911887
 C         -6.1408213629        2.5844583371        1.0850708467
 H         -6.5823378158        3.5620300862        0.8794006339
 H         -6.7808842803        2.0767604834        1.8109793660
 C         -4.7694462400        2.7960713947        1.7302088875
 H         -4.9405982852        3.1792407348        2.7403790998
 H         -4.1995841833        3.5576314846        1.2044733974
 C         -3.9347738229        1.5283738296        1.8812408209
 H         -3.1047685237        1.7365733814        2.5672277394
 H         -4.5347248225        0.7593327712        2.3809272999
 H         -5.8299668310        3.3503816321       -1.5974633879
 H         -5.5943676664        1.7249158476       -2.2487570825
 H         -3.6586723915        3.3760553943       -0.5945066161
 H         -3.4383026330        2.6416565023       -2.1763825534
 O         -2.6394962191        0.5605723164       -1.5684161956
 C         -1.9761628700       -0.6255130759       -1.3175617034
 O         -1.4406034853       -1.1167369450       -2.3340802754
 H          0.5490936837       -1.5596841321       -1.4379151849
 C          0.9818015563       -1.6555131454       -0.4526972392
 C          0.1925651321       -2.0956708395        0.6009323044
 C          0.7635833739       -2.1838539817        1.8649893103
 C          2.0882402349       -1.8368531525        2.0673643818
 C          2.8641600797       -1.3779635570        1.0174072917
 C          2.2986197227       -1.2800693934       -0.2465506686
 N          3.0693123395       -0.7423697752       -1.3101044480
 S          3.1621283849        0.9423707527       -1.2311739509
 O          1.9454648616        1.5145293358       -0.6953399398
 O          3.5471659857        1.3772855496       -2.5562931864
 C          4.5096997162        1.2195602642       -0.1020972765
 C          5.7881543264        0.8998889937       -0.5164680146
 C          6.8432281912        1.0945782287        0.3605785170
 C          6.6029687974        1.6024541869        1.6288475702
 C          5.3137636353        1.9204221890        2.0284404641
 C          4.2537167201        1.7277657869        1.1561603441
 H          3.2338817202        1.9556608413        1.4225297918
 H          5.1282753359        2.3149004523        3.0145286502
 H          7.4253251330        1.7523165047        2.3104248800
 H          7.8471958757        0.8497680790        0.0535542997
 H          5.9275167185        0.5143518065       -1.5125657165
 H          2.6837524352       -0.9851228615       -2.2139550841
 H          3.8931654653       -1.0943179828        1.1670921432
 H          2.5176582437       -1.9133654706        3.0544309585
 H          0.1525513173       -2.5055134488        2.6956526108
 C         -1.2696479833       -2.3999109977        0.3797707175
 H         -1.7024793835       -2.6888096358        1.3469346561
 C         -1.4640805594       -3.5426652162       -0.5954478103
 C         -1.2332227788       -4.9454966324       -0.1219336165
 C         -2.6249214913       -4.4718359921       -0.4126170503
 H         -3.1272914625       -4.8451061046       -1.2923060015
 H         -3.2859679269       -4.2868622277        0.4214830136
 H         -0.7769715468       -5.6487791993       -0.8013193368
 H         -0.9512927391       -5.0837593380        0.9107444554
 H         -1.1807653216       -3.2989347376       -1.6109472774
 O         -2.6493399814       -0.8190807944        2.2223377071
