  62
        -98.93833326
 C         -2.2415331247       -0.9770650262        0.4104067020
 C         -2.4900740330       -0.1334045410       -0.6967746863
 C         -3.3717864502        1.0241819715       -0.4547888117
 C         -3.8719819614        1.2303208062        0.7777968255
 C         -4.7562766757        2.3323780496        1.3236988702
 C         -5.5097153774        3.2688380813        0.3825224404
 C         -6.6138407625        2.6011041059       -0.4362844021
 H         -7.4210070988        2.3103725860        0.2408213312
 H         -7.0148907851        3.3398087818       -1.1336516382
 C         -6.1961721299        1.3569687504       -1.2163158409
 H         -7.0750751679        0.9885426638       -1.7522850675
 H         -5.8926269678        0.5720453722       -0.5204887274
 C         -5.0830957338        1.5700652294       -2.2404714685
 H         -5.3569263703        2.3813468194       -2.9175958208
 H         -5.0008608700        0.6540805185       -2.8314422240
 C         -3.6915813181        1.8679865324       -1.6549267669
 H         -2.9443198268        1.6149888291       -2.4127613394
 H         -3.5768849656        2.9242600684       -1.4234076521
 H         -5.9803590124        4.0284770141        1.0127239705
 H         -4.8136027407        3.7885364974       -0.2691430716
 H         -5.4743428174        1.8357860291        1.9841487578
 H         -4.1119230228        2.9376321833        1.9712963374
 O         -3.5708041250        0.4052092011        1.8252424588
 C         -2.7636891284       -0.7080298372        1.6727239974
 O         -2.5831236293       -1.3613376646        2.7216935372
 O         -1.9954609260       -0.3282943087       -1.8367528035
 C         -1.3621184266       -2.2024626713        0.2486177735
 C          0.0201973638       -1.8069536554       -0.2136747684
 C          0.7258263841       -2.5047284358       -1.1849912200
 C          2.0022883608       -2.1081041012       -1.5454389246
 C          2.6022731391       -1.0148391851       -0.9489868829
 C          1.9104995754       -0.3163256118        0.0320844698
 C          0.6353041026       -0.7197816759        0.3951196748
 H          0.1003670775       -0.1766587113        1.1659663467
 N          2.5121969924        0.8015845860        0.6414103081
 S          4.0079471999        0.5662189802        1.3725141229
 O          4.1574384918       -0.7925950793        1.8406572521
 O          4.1088507756        1.6060369460        2.3736231523
 C          5.1777970672        0.8961253853        0.0718937618
 C          6.1086644459       -0.0627995109       -0.2765913877
 C          7.0153439306        0.2200781997       -1.2864745845
 C          6.9754266672        1.4500159658       -1.9252277766
 C          6.0352506820        2.4029174426       -1.5617148474
 C          5.1267582780        2.1270942906       -0.5524274771
 H          4.3828929720        2.8398608267       -0.2374796665
 H          6.0069549490        3.3579789148       -2.0611205184
 H          7.6811158823        1.6678011685       -2.7112792074
 H          7.7468396383       -0.5192345331       -1.5706643552
 H          6.0972578290       -1.0066869317        0.2445653656
 H          1.8947691057        1.2949968708        1.2702570341
 H          3.5926283469       -0.6982824212       -1.2327235179
 H          2.5359554265       -2.6571060483       -2.3060445411
 H          0.2752828381       -3.3592492995       -1.6623699032
 H         -1.2654682202       -2.6408478522        1.2536677807
 C         -2.0373778374       -3.2103252440       -0.6589043427
 C         -1.8093875995       -4.6782598982       -0.4637785583
 C         -3.1277089891       -4.0690804082       -0.0947681216
 H         -3.9881135099       -4.2830222037       -0.7108371536
 H         -3.3615864599       -3.9464050041        0.9532499739
 H         -1.7679652707       -5.3145054273       -1.3349663950
 H         -1.1506436785       -4.9806462984        0.3364318725
 H         -2.1645986256       -2.8386790205       -1.6690238799
