  62
        -98.94633823
 C         -1.7934777376       -0.7411759610        0.2213635730
 C         -3.0917419042       -1.0072802777        0.7180477131
 C         -4.0195243981        0.1313764628        0.7306353128
 C         -3.5913942439        1.3333474413        0.3026605762
 C         -4.4462221697        2.5633484062        0.2103744107
 C         -5.1058645482        2.6786891468       -1.1710178807
 C         -5.7982526856        1.3968569892       -1.6341508273
 H         -6.2530884875        1.6054270074       -2.6050028610
 H         -5.0449766877        0.6216621351       -1.7930940829
 C         -6.8705542065        0.8703795448       -0.6700270043
 H         -7.1740842110        1.6625761421        0.0153528437
 H         -7.7524864937        0.5868794593       -1.2483127940
 C         -6.4506128094       -0.3616011550        0.1338666154
 H         -6.0586608758       -1.1247508618       -0.5434049643
 H         -7.3423111976       -0.7759382968        0.6118238513
 C         -5.4127916994       -0.1165690663        1.2364624340
 H         -5.7431533632        0.7039008189        1.8766872952
 H         -5.3535753381       -1.0244158924        1.8440683755
 H         -5.8302485225        3.4946099613       -1.1406415911
 H         -4.3359144431        2.9346274503       -1.9025469102
 H         -5.2084233050        2.5291036799        0.9863261742
 H         -3.8122976605        3.4362861493        0.3740474534
 O         -2.3287509289        1.5558618014       -0.1433905148
 C         -1.4014081429        0.5262591674       -0.2069538060
 O         -0.2876426424        0.8651953755       -0.6480146861
 H          1.8754273897       -1.9038987191       -0.6290987024
 C          1.7250101397       -1.5999458753        0.3926972443
 C          0.4516400229       -1.5264897750        0.9337876563
 C          0.3138231102       -1.1279382154        2.2619863290
 C          1.4193260979       -0.7983919201        3.0206899306
 C          2.6883780909       -0.8518561168        2.4693605780
 C          2.8382407348       -1.2548362235        1.1490382933
 N          4.1166202317       -1.3476625332        0.5661366155
 S          4.4560892384       -0.4987067184       -0.8369901217
 O          3.5739710476       -0.9196066939       -1.8932503303
 O          5.8692625590       -0.7156138889       -1.0602688322
 C          4.1822311048        1.2114484410       -0.4092969104
 C          5.2770564713        1.9884920330       -0.0804493783
 C          5.0772922055        3.3020667083        0.3101093833
 C          3.7891506633        3.8124438187        0.3750108902
 C          2.7024278498        3.0174165803        0.0467953357
 C          2.8934249816        1.7022854089       -0.3501245259
 H          2.0527690308        1.0779020767       -0.6090108407
 H          1.6955790224        3.4013095327        0.0943263807
 H          3.6303185121        4.8344386458        0.6816319266
 H          5.9222950261        3.9218208664        0.5636250170
 H          6.2596521793        1.5501725784       -0.1495554009
 H          4.8719663570       -1.2117407598        1.2239028759
 H          3.5542948299       -0.5886095867        3.0578188924
 H          1.2941574820       -0.4910787966        4.0479547899
 H         -0.6784650552       -1.0793471085        2.6898428615
 C         -0.7876900234       -1.8754169538        0.1486718917
 H         -1.2755507915       -2.7306431104        0.6400685158
 C         -0.5110066643       -2.2404521589       -1.2945939971
 C         -0.0946313245       -3.6346546836       -1.6524621462
 C         -1.4650575297       -3.1460996975       -2.0114356552
 H         -1.6875220412       -2.9448025266       -3.0487427291
 H         -2.3066777134       -3.5238965987       -1.4490749286
 H         -0.0059654522       -4.3510546192       -0.8497173792
 H          0.6294389977       -3.7667594280       -2.4425548066
 H         -0.0807008669       -1.4215333120       -1.8616338983
 O         -3.4539875662       -2.1401020034        1.1355722056
