  62
        -98.93970743
 C         -1.7678605284       -0.7093403079        0.2058048130
 C         -3.0754235640       -0.9309275639        0.6968889232
 C         -3.9954950433        0.2173359393        0.6464288279
 C         -3.5572884058        1.3919754727        0.1615348898
 C         -4.3029460180        2.6987013545        0.0540796193
 C         -5.7549165969        2.6479054418       -0.4409289914
 C         -6.0548500425        1.5418966017       -1.4632123729
 H         -6.5582750613        1.9828334939       -2.3256753307
 H         -5.1235847352        1.0996793628       -1.8215515566
 C         -6.9600359949        0.4414509599       -0.9041722349
 H         -7.4245382599       -0.0890779175       -1.7389278761
 H         -7.7618498759        0.9071371440       -0.3269436310
 C         -6.2616795549       -0.6046409048       -0.0361584496
 H         -7.0293716478       -1.2555760773        0.3891868016
 H         -5.6188336867       -1.2331408005       -0.6586293710
 C         -5.3998127207       -0.0465701162        1.1081475710
 H         -5.8533741369        0.8383772995        1.5476599610
 H         -5.3241135012       -0.8190227690        1.8783727336
 H         -6.4266157994        2.5359442314        0.4090151069
 H         -5.9705504994        3.6213273655       -0.8847102088
 H         -3.7059880036        3.3100953801       -0.6268155334
 H         -4.2760827094        3.1868596738        1.0326302767
 O         -2.2828662317        1.5631170252       -0.2919570423
 C         -1.3625747567        0.5273282469       -0.2909193055
 O         -0.2444415038        0.8337460515       -0.7450876705
 O         -3.4543357903       -2.0352851948        1.1709494093
 C         -0.7739459705       -1.8560500746        0.2094848856
 C          0.4613276067       -1.4717611172        0.9843208998
 C          0.3154669012       -1.0052908809        2.2893682453
 C          1.4165981332       -0.6403223925        3.0381171209
 C          2.6892020301       -0.7245497868        2.4989400669
 C          2.8469887204       -1.1941023573        1.2017321901
 C          1.7380972043       -1.5750711280        0.4562896809
 H          1.8945994075       -1.9306675816       -0.5477581719
 N          4.1291325713       -1.3181659383        0.6329492325
 S          4.4799634820       -0.5376705504       -0.8067562780
 O          3.6012200432       -1.0039046991       -1.8466131504
 O          5.8932208356       -0.7711082752       -1.0122020075
 C          4.2127531905        1.1915971798       -0.4589800689
 C          5.3097745458        1.9760667247       -0.1560735788
 C          5.1148246935        3.3060203755        0.1772822739
 C          3.8291317468        3.8253861785        0.2123583206
 C          2.7401460254        3.0230641122       -0.0896075627
 C          2.9263368720        1.6912691281       -0.4292316878
 H          2.0842162276        1.0607332917       -0.6678334274
 H          1.7352553288        3.4142387034       -0.0650889698
 H          3.6739440147        4.8600934755        0.4750679386
 H          5.9616031600        3.9314693959        0.4100872737
 H          6.2902615962        1.5297986705       -0.1997145125
 H          4.8801275610       -1.1520749715        1.2888362122
 H          3.5518580274       -0.4342606225        3.0794248134
 H          1.2853044565       -0.2807980515        4.0475065024
 H         -0.6796708123       -0.9321729151        2.7069355734
 H         -1.2749338753       -2.6758720764        0.7458838391
 C         -0.4883037236       -2.3083517570       -1.2070118175
 C         -0.0780766991       -3.7239015166       -1.4775962228
 C         -1.4425175574       -3.2495651278       -1.8762517357
 H         -1.6556901716       -3.1091103377       -2.9254686190
 H         -2.2908067371       -3.5881877013       -1.2991907225
 H          0.6512001721       -3.9072616307       -2.2525255268
 H         -0.0003811791       -4.3916682159       -0.6329029526
 H         -0.0485127458       -1.5273009146       -1.8185155100
