  62
        -98.94837312
 C         -1.3041548154       -1.5646553939        0.2041934528
 C         -1.6638986589       -0.6206038000        1.1956197339
 C         -2.9145924298        0.1086441542        0.9652382587
 C         -3.6318221763       -0.1340025183       -0.1471051293
 C         -4.9533721337        0.4916052740       -0.5030097659
 C         -4.8373040970        1.8599003805       -1.1874273118
 C         -4.4162727375        3.0093419704       -0.2712793788
 H         -5.0587883796        3.0261769728        0.6098641527
 H         -4.5897022500        3.9374471851       -0.8196211201
 C         -2.9451017283        2.9639840294        0.1631836052
 H         -2.4976748458        3.9551809665        0.0571498082
 H         -2.3789875824        2.3035757062       -0.4983370744
 C         -2.7155891377        2.5227964033        1.6084124173
 H         -3.1290654026        3.2694219335        2.2908751162
 H         -1.6349539355        2.4788586207        1.7691890406
 C         -3.3145738307        1.1548616497        1.9610317794
 H         -4.4004721986        1.2269944030        2.0236408057
 H         -2.9258564575        0.8526445492        2.9368383189
 H         -5.8166877308        2.0982488476       -1.6090280601
 H         -4.1284326934        1.7786834773       -2.0149083064
 H         -5.5671060752        0.5836673850        0.3936682306
 H         -5.4455875116       -0.1971889692       -1.1931378116
 O         -3.2359922611       -1.0260970032       -1.0935065704
 C         -2.0507003230       -1.7366675841       -0.9608564527
 O         -1.7885848164       -2.4787489305       -1.9267490069
 O         -0.9737163465       -0.4048504173        2.2288757050
 C         -0.0170092548       -2.3494429227        0.3734185285
 C          0.9987446683       -1.9279598284       -0.6607651505
 C          1.8520686794       -2.8122604297       -1.3086279440
 C          2.7833835650       -2.3427625126       -2.2192331558
 C          2.9077302432       -0.9900132615       -2.4798544974
 C          2.0622701339       -0.0967963379       -1.8317198449
 C          1.1135592046       -0.5738738722       -0.9427384975
 H          0.4423525092        0.1268171218       -0.4713411031
 N          2.1526180923        1.2868629417       -2.0463473259
 S          1.9086707946        2.3203507856       -0.7507104849
 O          0.5043460093        2.4285496275       -0.4515332085
 O          2.5632234109        3.5489805338       -1.1502385997
 C          2.8078938235        1.5737235902        0.5977267076
 C          2.1519594198        0.9674317507        1.6489777115
 C          2.9040699820        0.3539323486        2.6395812225
 C          4.2875046125        0.3562733652        2.5647866918
 C          4.9323273023        0.9784986275        1.5060813511
 C          4.1874679834        1.5903828388        0.5124060698
 H          4.6506907264        2.0952466645       -0.3197800829
 H          6.0089484477        0.9849897271        1.4517218676
 H          4.8649996056       -0.1268297373        3.3371359690
 H          2.3934422132       -0.1265403507        3.4591035714
 H          1.0736081226        0.9667596614        1.6908212186
 H          2.9273743087        1.5801138640       -2.6228676932
 H          3.6424316315       -0.6270277005       -3.1819471541
 H          3.4319143537       -3.0412581742       -2.7256813857
 H          1.7829109437       -3.8685553713       -1.1072968854
 H          0.3754512182       -2.0496988492        1.3578466729
 C         -0.2846115941       -3.8393854666        0.3914981907
 C          0.5897898409       -4.7535627682        1.1954626687
 C         -0.8082649521       -4.4636916675        1.6492934888
 H         -1.5526496322       -5.2413300828        1.5674085761
 H         -0.9469110070       -3.8167620324        2.5033568168
 H          0.8053738020       -5.7362871792        0.8040379949
 H          1.4028465939       -4.3091606986        1.7492131562
 H         -0.6817373244       -4.2023787567       -0.5494456283
