  62
        -98.93619423
 C         -2.4167366164       -0.5766726930        0.2170849948
 C         -2.7562645687        0.7952457184        0.0901734560
 C         -4.0940181024        1.0957385485       -0.4342272191
 C         -4.9051135377        0.0785974132       -0.7766556155
 C         -6.3118925454        0.2326286386       -1.2763298868
 C         -7.3196000184        0.2075847234       -0.1185893556
 C         -6.9565913362        1.1405687938        1.0366541205
 H         -7.7519505929        1.0617477762        1.7809607097
 H         -6.0384341807        0.7832288686        1.5086980396
 C         -6.7778293959        2.6108276504        0.6331880418
 H         -7.2430019490        2.7881737646       -0.3370721485
 H         -7.2952192410        3.2393672890        1.3610163374
 C         -5.3235710950        3.0838905861        0.5906448809
 H         -5.3222427884        4.1744081379        0.5126266325
 H         -4.8247969842        2.8232641508        1.5277124500
 C         -4.4796318905        2.5419048515       -0.5699488745
 H         -3.5393664300        3.1008991471       -0.5869941713
 H         -4.9992619015        2.7146461130       -1.5147033504
 H         -8.3021738945        0.4764388409       -0.5104786539
 H         -7.3752432959       -0.8119209591        0.2697558404
 H         -6.5287330798       -0.5955250816       -1.9529691833
 H         -6.3950835837        1.1691189452       -1.8244254962
 O         -4.5422288673       -1.2220765989       -0.6610525361
 C         -3.2956269936       -1.5915686131       -0.1649219253
 O         -3.1231733401       -2.8225307576       -0.1276243156
 O         -1.9713789098        1.7295165480        0.4100909025
 C         -1.0372180874       -0.8796377737        0.7719340240
 C         -0.0102864974       -0.9831634574       -0.3264848156
 C         -0.2351136788       -1.7525035644       -1.4639742863
 C          0.7353670300       -1.8508275270       -2.4443185948
 C          1.9491815603       -1.2012082415       -2.3038582515
 C          2.1791473545       -0.4219663596       -1.1761080611
 C          1.1961211668       -0.3110950252       -0.2023265925
 H          1.3831469746        0.3101455941        0.6611858734
 N          3.3890683593        0.2690163106       -1.0113811637
 S          4.0059240631        0.4209533085        0.5539491612
 O          3.8594955602       -0.8303706207        1.2621717051
 O          3.4163400921        1.5790782846        1.1768940996
 C          5.7232163334        0.7384226109        0.1967344480
 C          6.6259767793       -0.3078595611        0.2206692569
 C          7.9530663230       -0.0545945058       -0.0891621497
 C          8.3516002660        1.2321849246       -0.4187678439
 C          7.4338984293        2.2721971252       -0.4375440318
 C          6.1057707953        2.0264521769       -0.1276269523
 H          5.3588122831        2.8032035647       -0.1196777896
 H          7.7480631554        3.2717644011       -0.6913432364
 H          9.3847333540        1.4266429409       -0.6596545808
 H          8.6696357900       -0.8598550824       -0.0718016650
 H          6.2721764961       -1.2897555049        0.4912462560
 H          4.0987755159       -0.0093396966       -1.6750772892
 H          2.7090297682       -1.2895306124       -3.0653637420
 H          0.5492050357       -2.4516840399       -3.3218598973
 H         -1.1724253100       -2.2790827345       -1.5644756133
 H         -0.7746762715        0.0061824733        1.3740014515
 C         -1.0038805971       -2.0801794099        1.7076244727
 C         -0.3798290141       -3.3924117426        1.3516765248
 C          0.2868143680       -2.4970215203        2.3500639328
 H          0.2748435845       -2.7823673180        3.3913925202
 H          1.1901139798       -1.9861753361        2.0464627403
 H         -0.8709796371       -4.2884766382        1.6987161575
 H          0.0714731220       -3.4948758802        0.3776395715
 H         -1.8917211055       -2.1278367148        2.3307606694
