  62
        -98.94739915
 C          2.5637302669       -0.1356797912        0.3972616136
 C          2.1642440500       -0.7055972892       -0.8358386001
 C          1.7213404194       -2.1059570905       -0.7805754082
 C          1.7020254801       -2.7449221652        0.4030661893
 C          1.2512286761       -4.1620637149        0.6096661015
 C         -0.2413311163       -4.2377969656        0.9557524088
 C         -1.1424609901       -3.4556140025       -0.0001686767
 H         -2.1751831096       -3.6366276306        0.3084657052
 H         -0.9621979913       -2.3845505423        0.1246029029
 C         -0.9777221390       -3.8272220783       -1.4804283402
 H         -0.4958529464       -4.8023890675       -1.5678972924
 H         -1.9696968542       -3.9117221969       -1.9289144075
 C         -0.2041833736       -2.7963074915       -2.3052013796
 H         -0.6074223815       -1.8003278068       -2.1070339213
 H         -0.3646585949       -3.0160161550       -3.3645252648
 C          1.3115545918       -2.7556069092       -2.0720247638
 H          1.7247426225       -3.7647277377       -2.1437214765
 H          1.7530787417       -2.1446086311       -2.8649560155
 H         -0.5391571870       -5.2884580709        0.9605592812
 H         -0.3857261703       -3.8363969902        1.9617287558
 H          1.4545560854       -4.7347359836       -0.2933550522
 H          1.8267772777       -4.5849507047        1.4353287791
 O          2.0800516603       -2.1593880344        1.5696253087
 C          2.5016002766       -0.8407991025        1.5974096238
 O          2.8023429714       -0.4195267846        2.7349147378
 H          0.4159981981        1.0566906394        0.9894647014
 C          0.5965894448        1.9070438461        0.3470561121
 C          1.8951888277        2.2081633145       -0.0412443710
 C          2.1034571861        3.3173624756       -0.8511822309
 C          1.0309269704        4.0800440986       -1.2809602535
 C         -0.2644226297        3.7472692062       -0.9297137039
 C         -0.4811627186        2.6485406045       -0.1060575289
 N         -1.7798740135        2.2719923623        0.2888963841
 S         -2.0878645767        0.6065299453        0.3082545570
 O         -1.6459632847        0.0635309741        1.5695684476
 O         -1.5535788357       -0.0050346323       -0.8850725813
 C         -3.8703348633        0.6017514578        0.2572757034
 C         -4.5208483844        0.2220723701       -0.9008622222
 C         -5.9067688777        0.2472841197       -0.9299650563
 C         -6.6134088959        0.6530772745        0.1918424558
 C         -5.9459095755        1.0302886157        1.3480746044
 C         -4.5609765072        1.0048661327        1.3848387724
 H         -3.9991026180        1.2786523462        2.2625979183
 H         -6.4986933265        1.3425143013        2.2192983314
 H         -7.6914197671        0.6729469893        0.1663943222
 H         -6.4277564479       -0.0492256369       -1.8259554701
 H         -3.9276041963       -0.0895228124       -1.7455720986
 H         -2.4956488766        2.7612242707       -0.2328713912
 H         -1.1005265303        4.3284912914       -1.2881878905
 H          1.2058436818        4.9362274346       -1.9147726076
 H          3.1041709578        3.5775252487       -1.1553737639
 C          3.0081610377        1.3149761265        0.4530323385
 H          3.1774405188        1.5394043051        1.5173304948
 C          4.3098283985        1.5015758468       -0.2991336213
 C          5.2951704191        2.5425453028        0.1379021103
 C          5.5896661006        1.0908017639        0.3627730676
 H          6.3516734748        0.6168658364       -0.2373455869
 H          5.5215601997        0.7021120880        1.3687669246
 H          5.0391496702        3.1442863548        0.9968743688
 H          5.8610677564        3.0661485498       -0.6178056460
 H          4.2071381890        1.3014110724       -1.3594374378
 O          2.1948602312       -0.0825117986       -1.9298120828
