  62
        -98.93831196
 C          1.4064829703        1.4998045341       -0.1441753886
 C          2.5696441444        1.2773937331        0.6317569662
 C          3.4266558388        0.1432048280        0.2411805221
 C          3.0414607010       -0.6408854248       -0.7814356170
 C          3.7295241615       -1.8552137359       -1.3514623177
 C          4.2850951525       -2.8677736786       -0.3379668547
 C          5.8134740405       -2.8945450280       -0.2833935096
 H          6.1332173723       -3.8675893937        0.0961839410
 H          6.2000157710       -2.7996931094       -1.3003682874
 C          6.4501346373       -1.8232951720        0.6005248489
 H          7.5301668404       -1.8613951278        0.4396700581
 H          6.2702961597       -2.0669828949        1.6498972954
 C          5.9677148625       -0.3930899732        0.3487470059
 H          6.7409783072        0.2873922604        0.7118574401
 H          5.8594230702       -0.2080716123       -0.7193254204
 C          4.6617588186       -0.0460384577        1.0788689706
 H          4.4541124355       -0.7956633904        1.8480068429
 H          4.7809321701        0.9022971608        1.6121112803
 H          3.9426234573       -3.8600500300       -0.6356781141
 H          3.8750978242       -2.6664000202        0.6504468470
 H          2.9820324429       -2.3364778854       -1.9863484463
 H          4.5291691292       -1.5201712905       -2.0166729078
 O          1.9041428268       -0.3976696705       -1.4924120814
 C          1.0684530202        0.6705626251       -1.2121061021
 O          0.0875720336        0.7560544064       -1.9753618270
 H         -1.8544231954        2.1208792805       -1.0719070881
 C         -1.8731827832        1.7853605560       -0.0475532417
 C         -0.7842429512        2.0181047441        0.7774871310
 C         -0.8308220954        1.5535690322        2.0893562184
 C         -1.9383962933        0.8731723234        2.5599459539
 C         -3.0114315365        0.6147260014        1.7240475414
 C         -2.9666198802        1.0637668866        0.4112804811
 N         -4.0205715451        0.7470809314       -0.4654608850
 S         -4.5351078499       -0.8462519141       -0.4594009891
 O         -4.9933323896       -1.1095900262       -1.8062293207
 O         -5.5262927620       -1.0199172035        0.5751930177
 C         -3.1067999384       -1.8504736060       -0.0757795219
 C         -3.2166021833       -2.8103505619        0.9107786619
 C         -2.1187496923       -3.6017965382        1.2064912510
 C         -0.9302437077       -3.4179229672        0.5169094172
 C         -0.8365818284       -2.4509255189       -0.4714069056
 C         -1.9328600610       -1.6603204287       -0.7772242285
 H         -1.8569609276       -0.8980096167       -1.5369010097
 H          0.0867878650       -2.2915927148       -1.0062031755
 H         -0.0719606825       -4.0284307330        0.7494750342
 H         -2.1910963652       -4.3547323622        1.9747474125
 H         -4.1562814016       -2.9118237058        1.4293132505
 H         -3.8579141896        1.0613441861       -1.4116474811
 H         -3.8750925251        0.0661031013        2.0640991339
 H         -1.9629385690        0.5264863844        3.5816854369
 H          0.0229954013        1.7192453212        2.7311385315
 C          0.4854569778        2.6418875391        0.2556112244
 H          0.9913329793        3.1497508495        1.0869266582
 C          0.2746780892        3.6337528110       -0.8681146158
 C         -0.3294621127        4.9704168455       -0.5607000136
 C          1.1210534148        4.8687460945       -0.9223019153
 H          1.4395907720        5.2324012320       -1.8877946562
 H          1.8540310175        5.0071470360       -0.1411776775
 H         -1.0090966070        5.4074691467       -1.2762503924
 H         -0.5826286323        5.1764287817        0.4682344732
 H          0.0236405610        3.1695669772       -1.8140214649
 O          2.8848805119        2.0018661970        1.6131618480
