  62
        -98.94066648
 C         -2.0860607432       -0.9622001757        0.2680534058
 C         -1.9169801771        0.0474154987       -0.7120658562
 C         -2.1353362113        1.4262895255       -0.2521530715
 C         -2.4523437935        1.6714438358        1.0304839562
 C         -2.6713580360        3.0251823168        1.6503953151
 C         -4.0803488007        3.5944931984        1.4334898245
 C         -4.3783013709        4.0771015935        0.0132714410
 H         -5.3072210064        4.6489021819        0.0581621704
 H         -3.5906108716        4.7583343671       -0.3097607456
 C         -4.5416796891        2.9516455057       -1.0177860089
 H         -4.7109271487        2.0048671990       -0.4999853169
 H         -5.4242367153        3.1447149157       -1.6316065460
 C         -3.3559228318        2.7865415357       -1.9687112502
 H         -3.5586397504        1.9393285622       -2.6285826202
 H         -3.2537439543        3.6801561759       -2.5884592122
 C         -2.0184118318        2.5257608023       -1.2642209747
 H         -1.6554456333        3.4382387157       -0.7905097665
 H         -1.2840019010        2.2092081558       -2.0101239348
 H         -4.8104893723        2.8346405439        1.7209080983
 H         -4.1959245713        4.4415976305        2.1134743500
 H         -1.9281938673        3.7249129860        1.2662075927
 H         -2.5091165018        2.9027748278        2.7235240467
 O         -2.5997789045        0.6766780168        1.9457030860
 C         -2.4124700710       -0.6469878170        1.5898214825
 O         -2.5756448086       -1.4527964102        2.5302381346
 O         -1.6006095911       -0.1611965038       -1.9136195178
 C         -1.8356923830       -2.4402031996        0.0147192308
 C         -0.3829550967       -2.7687111004        0.2742129252
 C         -0.0249763646       -3.8990938031        0.9998710811
 C          1.3044811097       -4.1715454936        1.2680758046
 C          2.2986377946       -3.3089186910        0.8432441330
 C          1.9506238590       -2.1791330204        0.1114676846
 C          0.6201816382       -1.9315422071       -0.1904527000
 H          0.3753411315       -1.0550482212       -0.7700295783
 N          2.9262183225       -1.2732721685       -0.3348901979
 S          2.5277504704        0.3718300801       -0.3170717366
 O          1.7251339177        0.6760550312        0.8466317350
 O          1.9793526594        0.7334640481       -1.5988876125
 C          4.1535115028        1.0896213952       -0.1506074791
 C          4.6050884632        1.4620326702        1.1012316643
 C          5.8814079209        1.9888024167        1.2245302365
 C          6.6815030267        2.1296185048        0.1006253965
 C          6.2145239406        1.7514604182       -1.1495813598
 C          4.9390075386        1.2255297794       -1.2799893786
 H          4.5281077881        0.9268251153       -2.2302890700
 H          6.8380232879        1.8650967238       -2.0216040250
 H          7.6740645006        2.5397084602        0.1993981308
 H          6.2451374235        2.2866520486        2.1946977083
 H          3.9435053799        1.3408431178        1.9441737145
 H          3.8365107688       -1.4408347986        0.0722844485
 H          3.3340609919       -3.5049506535        1.0767233316
 H          1.5682220938       -5.0520254865        1.8339685262
 H         -0.7984245559       -4.5538315687        1.3728195896
 H         -2.4346429320       -2.9806904560        0.7618722914
 C         -2.2468011305       -2.9190293789       -1.3634884895
 C         -2.6317782466       -4.3540397559       -1.5553674083
 C         -3.6772499261       -3.2821369913       -1.6195469726
 H         -4.1067003765       -3.0292171259       -2.5770249335
 H         -4.3686964751       -3.1934405585       -0.7939306702
 H         -2.3411817917       -4.8440728282       -2.4717455612
 H         -2.6224505953       -4.9978755455       -0.6891651323
 H         -1.7072741887       -2.4285702170       -2.1629870156
