  62
        -98.94306198
 C          2.6815202789        1.1962894550        0.1268651011
 C          2.7117637571        0.1884633363       -0.8667870093
 C          3.9208744870       -0.6442036496       -0.8875520164
 C          4.9187138618       -0.3987783299       -0.0189730976
 C          6.2226297928       -1.1450438480        0.0652062465
 C          6.1510300423       -2.4344122500        0.8948461490
 C          5.3988569942       -3.5913622433        0.2358327483
 H          5.7957528742       -3.7571641431       -0.7661544282
 H          5.6119279870       -4.4869617184        0.8228611586
 C          3.8774625334       -3.3988384706        0.1640887736
 H          3.3786508903       -4.3164596180        0.4838099776
 H          3.5759520138       -2.6128011979        0.8603316651
 C          3.3456356734       -3.0560828942       -1.2276100340
 H          3.5198678464       -3.8961956736       -1.9035390296
 H          2.2662821278       -2.9003434920       -1.1527416407
 C          3.9631933972       -1.7952477369       -1.8464663072
 H          3.3720683308       -1.5186923074       -2.7228615012
 H          4.9873398262       -1.9926603748       -2.1622626597
 H          7.1774451610       -2.7571226775        1.0840225409
 H          5.6925092878       -2.2039658444        1.8593233370
 H          6.5781861016       -1.3762363724       -0.9392325992
 H          6.9371436574       -0.4693911740        0.5403781277
 O          4.8615591724        0.6015658789        0.9011050406
 C          3.7375772427        1.4039178309        1.0131844919
 O          3.7995219613        2.2537543977        1.9253937252
 O          1.7831647614       -0.0051424000       -1.6932881577
 C          1.4648069488        2.0947351208        0.2503728379
 C          0.2239936986        1.2607965181        0.4605707732
 C          0.2372911221        0.2710341724        1.4402079860
 C         -0.8771374885       -0.5111749923        1.6711003390
 C         -2.0337833299       -0.3232169817        0.9340565028
 C         -2.0653659880        0.6715080248       -0.0321816670
 C         -0.9423610975        1.4588083857       -0.2603452000
 H         -0.9840573076        2.2263142292       -1.0175632962
 N         -3.2315206086        0.8668454471       -0.7879630402
 S         -4.7168948126        0.9084019461       -0.0130143493
 O         -5.5784682785        1.6643577883       -0.8955930286
 O         -4.5952827892        1.3999430336        1.3398001470
 C         -5.2472436144       -0.7912750607       -0.0022690701
 C         -5.2815755543       -1.4716597545       -1.2036266491
 C         -5.7032704782       -2.7915404377       -1.2130019539
 C         -6.0842743864       -3.4044813131       -0.0285241464
 C         -6.0478751695       -2.7065943523        1.1688350368
 C         -5.6260381679       -1.3861822145        1.1851288114
 H         -5.5764278578       -0.8065119532        2.0932653223
 H         -6.3450059120       -3.1846686730        2.0884536741
 H         -6.4118236640       -4.4321015009       -0.0388266154
 H         -5.7325432760       -3.3377062178       -2.1421133145
 H         -4.9798404561       -0.9602054083       -2.1024052270
 H         -3.1573488198        1.5958492622       -1.4822225368
 H         -2.9050256780       -0.9334915167        1.1065651394
 H         -0.8462495002       -1.2786144013        2.4298596674
 H          1.1405945943        0.1219750093        2.0168939937
 H          1.6225609687        2.7012549059        1.1545468156
 C          1.3852303127        3.0196126936       -0.9466829396
 C          0.7447441853        4.3685875426       -0.8208278346
 C          2.2324856237        4.2548622187       -0.9609413524
 H          2.6887289215        4.5572514552       -1.8915790518
 H          2.8467233191        4.4432795322       -0.0923165156
 H          0.1815434324        4.7546292436       -1.6575561659
 H          0.3460321250        4.6458374659        0.1436093334
 H          1.2716160391        2.4813879642       -1.8809785849
