  62
        -98.93820912
 C          2.6693877887        1.1910023036        0.2231099703
 C          3.0923410266        0.2582535222        1.2052608322
 C          4.3053662433       -0.5060215163        0.8999028988
 C          4.9576477816       -0.2820698334       -0.2550432843
 C          6.2266322661       -0.9557352905       -0.7021311138
 C          6.0081575795       -2.3184051724       -1.3736641676
 C          5.6057355545       -3.4519358046       -0.4294191315
 H          5.7011469348       -4.3842538927       -0.9895625144
 H          6.3102507675       -3.4982867353        0.4016277153
 C          4.1732278420       -3.3464798674        0.1123030528
 H          3.6006451973       -2.6484493997       -0.5028993176
 H          3.6816153281       -4.3187116220        0.0336336481
 C          4.0779343951       -2.9085802945        1.5739039079
 H          4.5308281514       -3.6683763451        2.2148270903
 H          3.0205319357       -2.8297708983        1.8393001551
 C          4.7426200264       -1.5586157267        1.8732039371
 H          5.8275319420       -1.6618812344        1.8595448960
 H          4.4334050402       -1.2372630619        2.8708771441
 H          6.9463289779       -2.5953536450       -1.8600952016
 H          5.2503894016       -2.2064551829       -2.1524971530
 H          6.6947804700       -0.2859302850       -1.4266934464
 H          6.8987704506       -1.0715412086        0.1486938534
 O          4.5309942101        0.6296026215       -1.1660087645
 C          3.3699826254        1.3713005059       -0.9706647498
 O          3.1031605850        2.1322843402       -1.9175991622
 O          2.4857688451        0.0844927675        2.2968758613
 C          1.4150750645        1.9840839716        0.5426667208
 C          0.1848728062        1.2957484688        0.0085782090
 C          0.0901059642        0.9105795522       -1.3251603149
 C         -1.0539231961        0.2910785307       -1.7945463966
 C         -2.1198655539        0.0368283119       -0.9487991098
 C         -2.0347932447        0.4132324133        0.3845222445
 C         -0.8863540433        1.0406731291        0.8520330269
 H         -0.8194134355        1.3225949021        1.8944167593
 N         -3.1034874422        0.1404426070        1.2521518542
 S         -4.6622441658        0.5298122296        0.7686609435
 O         -4.6663425067        1.6530466869       -0.1390655774
 O         -5.4059587973        0.6932367299        1.9983060310
 C         -5.2328148235       -0.9359890969       -0.0647713169
 C         -5.1468262977       -2.1415611112        0.6036137533
 C         -5.5999806654       -3.2893465520       -0.0266399177
 C         -6.1313690005       -3.2123740981       -1.3055750683
 C         -6.2134849110       -1.9939228970       -1.9618842648
 C         -5.7610012013       -0.8419395015       -1.3373549949
 H         -5.7996356306        0.1258990631       -1.8115883091
 H         -6.6267606818       -1.9361498070       -2.9560557455
 H         -6.4833816688       -4.1075138095       -1.7936272920
 H         -5.5371696918       -4.2388391822        0.4802022412
 H         -4.7297536801       -2.1595872849        1.5967093633
 H         -2.9377661840        0.4130380210        2.2100088154
 H         -3.0116902320       -0.4466875799       -1.3125931225
 H         -1.1162445547        0.0006883462       -2.8324576946
 H          0.9196265358        1.1084472976       -1.9873599263
 H          1.3498016712        1.9614204420        1.6425383046
 C          1.5034044712        3.4472196649        0.1315701584
 C          0.7127832474        4.0524161735       -0.9849784452
 C          0.3684125907        4.3807931202        0.4348867962
 H          0.5932406667        5.3669909841        0.8117927448
 H         -0.5367708244        3.9499065748        0.8374336959
 H          1.1997359326        4.8005202455       -1.5914500876
 H          0.0367874964        3.4199790096       -1.5381271591
 H          2.5045375325        3.8422944257        0.2727924770
