  62
        -98.93833862
 C         -2.2532221475        0.9916275502       -0.3919459136
 C         -2.4872469353        0.1210711130        0.6974048323
 C         -3.3495974908       -1.0458659076        0.4315994110
 C         -3.8439362059       -1.2365214438       -0.8057994852
 C         -4.7067797474       -2.3435854038       -1.3754520422
 C         -5.4407723866       -3.3150261418       -0.4546365291
 C         -6.5596142953       -2.6875771902        0.3760098587
 H         -6.9437679560       -3.4475828717        1.0598236031
 H         -7.3732811477       -2.4029960305       -0.2959269694
 C         -6.1699767600       -1.4485452959        1.1783151231
 H         -7.0575936197       -1.1077699154        1.7181693493
 H         -5.8812932202       -0.6457447740        0.4967309338
 C         -5.0551442088       -1.6559111812        2.2016956454
 H         -5.3145742328       -2.4828944170        2.8653851575
 H         -4.9921351872       -0.7479627066        2.8072856104
 C         -3.6569300291       -1.9175252189        1.6149838662
 H         -3.5223073933       -2.9671237795        1.3647963215
 H         -2.9163873830       -1.6647657036        2.3794709903
 H         -4.7341712940       -3.8328267785        0.1871519016
 H         -5.8944791877       -4.0716466488       -1.1006617489
 H         -5.4349495488       -1.8472835782       -2.0249600207
 H         -4.0507273042       -2.9217158652       -2.0359361429
 O         -3.5558446152       -0.3855203412       -1.8361418924
 C         -2.7684722161        0.7383745190       -1.6603355038
 O         -2.5972519613        1.4148322131       -2.6961488206
 H          0.1098818834        0.2898011314       -1.2339073386
 C          0.6322580647        0.7926291692       -0.4279009983
 C         -0.0026522872        1.8321819884        0.2409871650
 C          0.6859141966        2.4804820688        1.2574777603
 C          1.9646047982        2.0788467888        1.6044980654
 C          2.5838097416        1.0310377872        0.9491141730
 C          1.9104618969        0.3851206350       -0.0797484280
 N          2.5292634421       -0.6859448075       -0.7501509511
 S          4.0620057099       -0.4306742536       -1.3903245045
 O          4.2672445597        0.9585341197       -1.7297050373
 O          4.1827848389       -1.3824075101       -2.4733808652
 C          5.1614541970       -0.9076026961       -0.0738007924
 C          5.0583321141       -2.1907505873        0.4266240218
 C          5.9102786197       -2.5810497777        1.4473461811
 C          6.8472361942       -1.6877743485        1.9454753694
 C          6.9405750861       -0.4042133883        1.4297051712
 C          6.0906743263       -0.0070676757        0.4089881273
 H          6.1231125051        0.9817068094       -0.0200718736
 H          7.6698278360        0.2884292871        1.8180556014
 H          7.5087202560       -1.9944779696        2.7402442726
 H          5.8406301795       -3.5784356263        1.8507664871
 H          4.3195455913       -2.8544173476        0.0091221402
 H          1.9339768697       -1.1288467529       -1.4351025660
 H          3.5759531099        0.7108734739        1.2219964871
 H          2.4848344338        2.5875852442        2.4015570087
 H          0.2203303739        3.2985866142        1.7817705243
 C         -1.3908826562        2.2259275034       -0.2048790353
 H         -1.3046596230        2.6892430905       -1.1994827868
 C         -2.0735483415        3.2029242000        0.7298927449
 C         -1.8470571813        4.6764552530        0.5807464507
 C         -3.1629851494        4.0769967388        0.1880659759
 H         -4.0258987900        4.2705794001        0.8073844750
 H         -3.3930102845        3.9868396699       -0.8640535189
 H         -1.1853284720        5.0036973198       -0.2071301942
 H         -1.8097477027        5.2860620484        1.4709141961
 H         -2.2045042672        2.8003625687        1.7275795675
 O         -1.9957278937        0.3003626977        1.8412255521
