  62
        -98.94633256
 C          1.7951420803        0.7485690003        0.2244561994
 C          3.0963049903        1.0106285704        0.7156928593
 C          4.0203331603       -0.1311983997        0.7253781394
 C          3.5858814903       -1.3322710697        0.3013578496
 C          4.4334838702       -2.5676366197        0.2142238297
 C          5.0896779701       -2.6952092300       -1.1675494703
 C          5.7901903301       -1.4206369800       -1.6383798705
 H          6.2440008701       -1.6379968102       -2.6077731705
 H          5.0417317302       -0.6418215500       -1.8022443906
 C          6.8654630402       -0.8949349399       -0.6771607007
 H          7.1643416402       -1.6849872698        0.0126833494
 H          7.7490477902       -0.6199910300       -1.2570211807
 C          6.4530055503        0.3442286902        0.1196115592
 H          7.3477580103        0.7571235702        0.5931277091
 H          6.0637752703        1.1049286801       -0.5619734609
 C          5.4163126403        0.1119619704        1.2261107993
 H          5.3637038804        1.0240079504        1.8280039192
 H          5.7436602204       -0.7061997496        1.8708738894
 H          5.8082369501       -3.5161421200       -1.1339798302
 H          4.3165310801       -2.9495600700       -1.8962417102
 H          5.1973139503       -2.5332125197        0.9885616697
 H          3.7945602602       -3.4357171097        0.3844348799
 O          2.3218506002       -1.5498977797       -0.1431937103
 C          1.3983352602       -0.5168702197       -0.2054190604
 O          0.2831069902       -0.8513864898       -0.6462415903
 O          3.4635218004        2.1421156204        1.1324439091
 C          0.7909167003        1.8847263803        0.1597506193
 C         -0.4498035496        1.5293340505        0.9397800194
 C         -0.3144197196        1.1189062906        2.2645937595
 C         -1.4211759995        0.7814738808        3.0179951196
 C         -2.6891132296        0.8385006507        2.4644392197
 C         -2.8365323196        1.2529635606        1.1474306696
 C         -1.7221788997        1.6066767904        0.3968476995
 H         -1.8708664897        1.9194942903       -0.6224986505
 N         -4.1133621697        1.3476670105        0.5610051297
 S         -4.4461121698        0.4988106803       -0.8439879602
 O         -3.5548539898        0.9153322902       -1.8941706903
 O         -5.8568691898        0.7202308703       -1.0779762101
 C         -4.1821404098       -1.2119824196       -0.4123869000
 C         -5.2819870498       -1.9815783195       -0.0828504198
 C         -5.0906504698       -3.2954610095        0.3108433804
 C         -3.8056842198       -3.8134243195        0.3781626404
 C         -2.7137880198       -3.0256630496        0.0495439602
 C         -2.8962919698       -1.7101735996       -0.3503017700
 H         -2.0520007898       -1.0905830597       -0.6091039601
 H         -1.7095249298       -3.4160513696        0.0991266002
 H         -3.6533671498       -4.8356941895        0.6872211805
 H         -5.9396499098       -3.9094546494        0.5650447305
 H         -6.2617374998       -1.5371899295       -0.1537155198
 H         -4.8708264196        1.2096401106        1.2159973697
 H         -3.5558291395        0.5686190908        3.0486732998
 H         -1.2977895195        0.4645408709        4.0425598796
 H          0.6770397305        1.0666858807        2.6939109294
 H          1.2788563104        2.7353884404        0.6588905092
 C          0.5160953303        2.2623718101       -1.2806222807
 C          0.1013852503        3.6601124601       -1.6266423409
 C          1.4715851902        3.1733181100       -1.9887580609
 H          1.6946427502        2.9807373699       -3.0275831409
 H          2.3131225303        3.5453433201       -1.4224634310
 H         -0.6218775598        3.7998350900       -2.4161524509
 H          0.0128563603        4.3695751502       -0.8177601110
 H          0.0852853602        1.4487859901       -1.8549915806
