  62
        -98.94434301
 C         -1.6008189739       -1.3876135320        0.5329682193
 C         -1.6131611212       -0.0816360394        1.0866315491
 C         -2.7545448757        0.7626765497        0.7196553762
 C         -3.7121529752        0.2738198807       -0.0891281891
 C         -4.9574545832        0.9970682560       -0.5257068234
 C         -4.7574254077        1.9049538359       -1.7468058268
 C         -3.9644189164        3.1847037265       -1.4800261135
 H         -4.0816670543        3.8228393551       -2.3581255200
 H         -4.4038798700        3.7123933538       -0.6330409840
 C         -2.4668384031        2.9587473042       -1.2288061345
 H         -2.1837639518        1.9638121146       -1.5808021778
 H         -1.8877144263        3.6785817282       -1.8110760488
 C         -2.0371744738        3.1082535987        0.2305108657
 H         -0.9694089351        2.8863907494        0.2946091670
 H         -2.1905232564        4.1404720676        0.5519638322
 C         -2.7696878019        2.1795576179        1.2076067455
 H         -2.2444335535        2.2067674235        2.1651058163
 H         -3.7939333849        2.5197578042        1.3586659273
 H         -4.2654575255        1.3280621851       -2.5334533026
 H         -5.7487315060        2.1849849637       -2.1108016313
 H         -5.6882254824        0.2279245007       -0.7850029319
 H         -5.3504794295        1.5836266073        0.3050992317
 O         -3.6622655528       -0.9827706222       -0.6032224734
 C         -2.5932112352       -1.8299873081       -0.3419509954
 O         -2.6651770726       -2.9239143958       -0.9333302481
 O         -0.7166937395        0.3534450524        1.8567415443
 C         -0.4136948869       -2.2786065190        0.8618707674
 C          0.5183409307       -2.2710043864       -0.3248958095
 C          0.5244693704       -3.2671084733       -1.2933794341
 C          1.3719454043       -3.1722838520       -2.3831862642
 C          2.2392347125       -2.1029464716       -2.5162470066
 C          2.2399996492       -1.1006253910       -1.5523065491
 C          1.3733939605       -1.1856365878       -0.4745445992
 H          1.3615705838       -0.3983063208        0.2646840532
 N          3.1012170219        0.0025386638       -1.6551700625
 S          3.8923459992        0.5541590038       -0.2827486047
 O          5.0844258661        1.1998110662       -0.7933090917
 O          4.1083401808       -0.5142552482        0.6648434008
 C          2.8270079624        1.8024626305        0.4023022011
 C          2.4842275343        2.8743628683       -0.3985657376
 C          1.6968064501        3.8808005729        0.1346335993
 C          1.2683214411        3.7988227400        1.4518906809
 C          1.6196815645        2.7158771246        2.2413614119
 C          2.4093403475        1.7070218281        1.7137478661
 H          2.7000130506        0.8456204291        2.2941096294
 H          1.2754321430        2.6446898902        3.2602061869
 H          0.6525371259        4.5823376348        1.8648875524
 H          1.4151728883        4.7238674178       -0.4757777160
 H          2.8417386355        2.9033932927       -1.4145395237
 H          3.7228231562       -0.0223270356       -2.4507267447
 H          2.9095882359       -2.0398831668       -3.3603700537
 H          1.3646997594       -3.9481066389       -3.1340823772
 H         -0.1495547229       -4.1029513942       -1.2028607144
 H          0.1041644706       -1.7745726122        1.6899190356
 C         -0.8140914531       -3.6648564558        1.3169871536
 C          0.2100058129       -4.5304646885        1.9863022136
 C         -0.9183907179       -3.9509668659        2.7838500461
 H         -1.7017223691       -4.6113492944        3.1244983353
 H         -0.6980141208       -3.1454699086        3.4691080458
 H          0.2048644523       -5.5900359319        1.7813360989
 H          1.1971691681       -4.1147545878        2.1253361611
 H         -1.5370537590       -4.1430291148        0.6685705686
