  62
        -98.93336115
 C         -2.5521933882       -1.3277579695       -0.3643444053
 C         -2.1602765547       -0.0842572435       -0.9153822460
 C         -3.1398711217        1.0095898111       -0.8022419601
 C         -4.3187067449        0.7793531895       -0.1968242734
 C         -5.3811653233        1.8079722096        0.0673721411
 C         -4.9785653342        2.6810255061        1.2731396036
 C         -4.7177461692        4.1477962994        0.9301583593
 H         -5.6742035018        4.6515241113        0.7753632012
 H         -4.2402467966        4.6061427358        1.7988742876
 C         -3.8499534132        4.4001066739       -0.3065108646
 H         -3.5361715836        5.4453159927       -0.2659978414
 H         -4.4549950289        4.2913507140       -1.2078375468
 C         -2.6022682768        3.5178400936       -0.4444965311
 H         -1.7901663211        4.1369510297       -0.8315412148
 H         -2.2786039662        3.1488055142        0.5294901751
 C         -2.7608647435        2.3305822747       -1.4127651599
 H         -3.4794248645        2.5910915525       -2.1948643199
 H         -1.7975010826        2.1470055596       -1.8975834354
 H         -5.7635259111        2.6413470017        2.0298802709
 H         -4.0840714178        2.2479788730        1.7266147044
 H         -6.3064341224        1.2718304569        0.2790005434
 H         -5.5278169133        2.4220597958       -0.8182817323
 O         -4.6549634162       -0.4277423269        0.3277618712
 C         -3.7851668215       -1.5019804807        0.2675852813
 O         -4.2183802395       -2.5435622174        0.7994511186
 O         -1.0547194875        0.1134116560       -1.4856607306
 C         -1.6223694190       -2.5313881934       -0.3940917197
 C         -0.4481281668       -2.2315467502        0.5055976206
 C         -0.6082281375       -2.3512107307        1.8835875344
 C          0.4190714380       -2.0151550007        2.7447890262
 C          1.6246984530       -1.5457877548        2.2520033583
 C          1.7894766594       -1.4133260898        0.8804401593
 C          0.7611022222       -1.7669253234        0.0151994255
 H          0.8963449863       -1.6442602755       -1.0474642274
 N          3.0102473322       -0.9367737987        0.3635217207
 S          3.6890785599        0.4094235186        1.1267090805
 O          4.3889315192       -0.0428180626        2.3041208674
 O          2.6858771998        1.4277564985        1.3451568700
 C          4.8632235875        0.9360727626       -0.1055146096
 C          4.4697430715        1.8586470307       -1.0563230601
 C          5.3764604092        2.2433307036       -2.0315011097
 C          6.6520734089        1.6989647047       -2.0412378503
 C          7.0315100950        0.7731399998       -1.0807841255
 C          6.1303924104        0.3849938911       -0.1021101482
 H          6.3813001927       -0.3243789379        0.6689985181
 H          8.0245930725        0.3538555295       -1.0913261179
 H          7.3548935461        2.0006166596       -2.8017502272
 H          5.0843222390        2.9641700573       -2.7782205259
 H          3.4700338057        2.2610425041       -1.0069395726
 H          2.9471578859       -0.7764266882       -0.6333905961
 H          2.4285957994       -1.2627797635        2.9123146056
 H          0.2808890086       -2.1130643906        3.8113974086
 H         -1.5576852224       -2.6967107415        2.2699419498
 H         -2.1890246424       -3.3592317755        0.0523118835
 C         -1.2386638133       -2.9108845407       -1.8087131702
 C         -0.6276851645       -4.2541346209       -2.0683013590
 C         -2.0272109537       -3.9670578896       -2.5203349142
 H         -2.2145039998       -3.8449240501       -3.5766143749
 H         -2.8439832598       -4.4270256668       -1.9833811664
 H          0.1473162213       -4.3335201385       -2.8151536504
 H         -0.4927502374       -4.9106608347       -1.2221031295
 H         -0.8943440213       -2.0718926559       -2.4000934931
