  62
        -98.93929588
 C          2.0115492419        0.8988843495        0.0262351274
 C          2.3284542555       -0.0726630512        1.0003315465
 C          2.4031420492       -1.4695640415        0.5412924845
 C          2.1605532109       -1.7516184494       -0.7525943346
 C          2.0965044386       -3.0747471460       -1.4878051566
 C          2.6547355984       -4.3488512177       -0.8588255917
 C          4.1730209839       -4.3647691263       -0.6851903081
 H          4.4443916566       -5.2744560611       -0.1453277646
 H          4.6349487712       -4.4128798948       -1.6743124669
 C          4.7647270054       -3.1600887396        0.0419647902
 H          4.5871704524       -2.2551535618       -0.5426378852
 H          5.8473567027       -3.3015902096        0.0974650547
 C          4.2521611663       -2.9390858244        1.4637640666
 H          4.8701129215       -2.1606531330        1.9189290636
 H          4.3803503214       -3.8523539809        2.0477723978
 C          2.7852987953       -2.4871285499        1.5775839609
 H          2.1028267670       -3.3338593656        1.5501333476
 H          2.6548153837       -1.9975389290        2.5473584850
 H          2.3903591094       -5.1683294144       -1.5327539582
 H          2.1598542057       -4.5476918800        0.0872838911
 H          2.5894235433       -2.9040760320       -2.4503625023
 H          1.0340990968       -3.2305477539       -1.7087158895
 O          1.8622611804       -0.7760788827       -1.6603744180
 C          1.7606205961        0.5556591177       -1.3008190643
 O          1.4660129655        1.3217182988       -2.2388960370
 O          2.5312612228        0.2130056238        2.2132904238
 C          1.8477585356        2.3476777836        0.4458740084
 C          0.4431756830        2.8028299295        0.1317867670
 C          0.1440364016        4.0398085301       -0.4241223825
 C         -1.1659412055        4.3732282707       -0.7233942649
 C         -2.1968258332        3.4830003990       -0.4884216262
 C         -1.9096395503        2.2503525815        0.0885000875
 C         -0.6022976995        1.9317250891        0.4121029018
 H         -0.3921628221        0.9697056360        0.8581710461
 N         -2.9335243183        1.3268753589        0.3676575328
 S         -2.5798604006       -0.3199840479        0.2392162385
 O         -1.9488782029       -0.7555305925        1.4611247706
 O         -1.8664860151       -0.5959181885       -0.9877864260
 C         -4.2341875879       -0.9827320889        0.1585952698
 C         -4.9603957879       -1.0889833140        1.3300261643
 C         -6.2596341261       -1.5673956487        1.2715570606
 C         -6.8084170463       -1.9292112601        0.0500056473
 C         -6.0667436773       -1.8196561731       -1.1165681614
 C         -4.7670477328       -1.3399271105       -1.0653359815
 H         -4.1493271373       -1.2424252642       -1.9439387488
 H         -6.4940772010       -2.1047962083       -2.0643616367
 H         -7.8196281719       -2.3017023563        0.0070721437
 H         -6.8382084444       -1.6563605896        2.1767509916
 H         -4.4872738444       -0.8041469686        2.2552064238
 H         -3.7989825827        1.5525378594       -0.1045424578
 H         -3.2139267464        3.7352006327       -0.7470980000
 H         -1.3842114312        5.3343914322       -1.1635773564
 H          0.9377510092        4.7370318141       -0.6370369623
 H          1.9783790356        2.3543764850        1.5389148601
 C          2.9197074154        3.2144171741       -0.1810821508
 C          3.4140430474        4.4400089149        0.5262197479
 C          4.2877161887        3.2267139478        0.4303505750
 H          5.1449939910        3.2551730518       -0.2252575326
 H          4.4363503466        2.6289315714        1.3178561017
 H          3.6760115660        5.3050538198       -0.0640937387
 H          2.9770299879        4.6734785072        1.4852867289
 H          2.8537864204        3.2341410412       -1.2632971530
