  62
        -98.93198230
 C         -2.4214317803       -1.2285125112        0.4451037190
 C         -2.3665294105        0.0865543792       -0.0785856200
 C         -3.5465319005        0.9295315489        0.1797590506
 C         -4.5720186405        0.4483191483        0.9029906902
 C         -5.8228574006        1.1864154579        1.3012432807
 C         -6.7608204806        1.6108126686        0.1547995210
 C         -6.5270273307        3.0371405490       -0.3584307780
 H         -7.4950936808        3.5013531191       -0.5575107077
 H         -6.0564596008        3.6221409385        0.4327618324
 C         -5.7015379707        3.1573037600       -1.6431344679
 H         -6.3341596007        2.9083404706       -2.4982763581
 H         -5.4002565308        4.2015486201       -1.7506438071
 C         -4.4571511106        2.2727078802       -1.7215822085
 H         -3.8649866207        2.5929666509       -2.5812413283
 H         -4.7535961705        1.2396624503       -1.9194077192
 C         -3.5763882207        2.2885562394       -0.4570688285
 H         -2.5452264107        2.5295480797       -0.7233691783
 H         -3.9325144608        3.0355912188        0.2506362321
 H         -7.7791368606        1.5514827182        0.5424063009
 H         -6.6850881805        0.8937982092       -0.6623232995
 H         -5.5389099107        2.0675308775        1.8812630013
 H         -6.3594256305        0.5079661774        1.9677679102
 O         -4.5682901104       -0.8113351921        1.4204991193
 C         -3.5057162703       -1.6720205818        1.2073680787
 O         -3.6373871302       -2.7879794422        1.7491480379
 O         -1.3943120305        0.5518808298       -0.7258326697
 C         -1.2800351702       -2.2156338409        0.2650142783
 C          0.0355337497       -1.5427549210        0.5691274189
 C          0.2993012896       -1.1566702819        1.8804221791
 C          1.4855473596       -0.5287440720        2.2072441296
 C          2.4342599296       -0.2688726512        1.2336506798
 C          2.1820567096       -0.6501854103       -0.0765495705
 C          0.9926317297       -1.2916378902       -0.4001439309
 H          0.8009495797       -1.5629841095       -1.4267129611
 N          3.1256148096       -0.3658062495       -1.0749732602
 S          4.7483077196       -0.6599461096       -0.7950678604
 O          5.3378323797       -0.7996088486       -2.1090016005
 O          4.9388585997       -1.7680898902        0.1123421388
 C          5.3395727795        0.8467051800       -0.0526556893
 C          5.0750354894        2.0386953204       -0.6979692785
 C          5.5380168692        3.2190331000       -0.1390703376
 C          6.2565482492        3.1877180993        1.0468639024
 C          6.5170123093        1.9825559288        1.6806257415
 C          6.0555808894        0.7982442792        1.1272409307
 H          6.2284338695       -0.1610789611        1.5886122700
 H          7.0755425593        1.9603863682        2.6025944415
 H          6.6150897591        4.1083179190        1.4796524130
 H          5.3363057192        4.1582023504       -0.6286270369
 H          4.5134396094        2.0217155210       -1.6171082085
 H          2.8449671497       -0.6430502189       -2.0036055704
 H          3.3597402395        0.2251792287        1.4805064602
 H          1.6736183095       -0.2336785527        3.2285517598
 H         -0.4461166704       -1.3507408525        2.6402322990
 H         -1.4476852602       -2.9844706115        1.0371371178
 C         -1.2887878301       -2.9420193300       -1.0719939722
 C         -2.5824966901       -3.2904392596       -1.7439781424
 C         -1.6703263802       -2.2727445591       -2.3567955517
 H         -1.1326069901       -2.5447609784       -3.2539048019
 H         -1.9539817203       -1.2331604791       -2.3169116710
 H         -2.6718342600       -4.2566834493       -2.2172800531
 H         -3.4942359801       -2.9478082800       -1.2763678822
 H         -0.5030474901       -3.6901670098       -1.1270383127
