  62
        -98.93988247
 C         -1.6069459260       -1.4953281892        0.2537376224
 C         -1.3428696701       -0.4129015301       -0.6186165012
 C         -2.0577627480        0.8392903692       -0.3359048998
 C         -2.8565191426        0.9062719437        0.7440098676
 C         -3.6857427903        2.0929762296        1.1455868897
 C         -4.9336212666        2.2037365906        0.2465507822
 C         -4.9630189813        3.4504673956       -0.6375125365
 H         -5.7639212139        3.3157892790       -1.3674761427
 H         -5.2184547006        4.3157320054       -0.0223461109
 C         -3.6609876158        3.7690248069       -1.3779789342
 H         -3.9033538015        4.5063884223       -2.1461952893
 H         -2.9576587995        4.2490967343       -0.6956846771
 C         -2.9613512878        2.5760184067       -2.0411964068
 H         -2.5647368924        2.9075895198       -3.0027975559
 H         -3.6750365651        1.7783974931       -2.2481065879
 C         -1.7744056393        2.0025722192       -1.2454180824
 H         -1.2933654538        2.7968314366       -0.6662248088
 H         -1.0307444190        1.6253813140       -1.9540108250
 H         -5.8299739662        2.2036032742        0.8685471334
 H         -4.9839224356        1.3101305494       -0.3787791494
 H         -3.9767926731        1.9465394837        2.1863124803
 H         -3.0802030918        2.9948080661        1.0809887338
 O         -3.0590832378       -0.1458313315        1.5810336894
 C         -2.4266454930       -1.3598676141        1.3708916161
 O         -2.6679118020       -2.2260380082        2.2390307091
 O         -0.5422955295       -0.4893869357       -1.5874118770
 C         -0.8730291895       -2.8125596412        0.0583070535
 C          0.6085556619       -2.5253649409        0.0629098950
 C          1.4933281103       -2.9719923333       -0.9094697071
 C          2.8170818813       -2.5652514429       -0.8965834684
 C          3.2796155871       -1.6910790106        0.0706121357
 C          2.4090049960       -1.2675583393        1.0652380807
 C          1.0979542134       -1.7068949401        1.0742429227
 H          0.4233556875       -1.3547405914        1.8459928735
 N          2.8601980211       -0.2946296287        2.0085592266
 S          2.3150634286        1.2408539108        1.5492367999
 O          2.8682445953        2.1587099637        2.5239863112
 O          0.8726774657        1.2790708493        1.4222775649
 C          3.1048870440        1.4623733164       -0.0258614900
 C          4.3909561434        1.9669285678       -0.0463016212
 C          5.0389187234        2.0990284105       -1.2634814600
 C          4.3942344474        1.7195442306       -2.4315990043
 C          3.1045089261        1.2127727374       -2.3917729519
 C          2.4474164223        1.0793769026       -1.1780504042
 H          1.4456978409        0.6808975791       -1.1183361916
 H          2.6001597934        0.9117826423       -3.2959305074
 H          4.8992376965        1.8185856809       -3.3795992171
 H          6.0417621247        2.4932557930       -1.2976083904
 H          4.8469213385        2.2486971536        0.8885778889
 H          2.5137765776       -0.4726945056        2.9429714148
 H          4.2949360910       -1.3298691500        0.0649381414
 H          3.4888257673       -2.9111425258       -1.6666993068
 H          1.1389310111       -3.6209687942       -1.6935149910
 H         -1.1173910855       -3.4337297799        0.9322734066
 C         -1.3533380071       -3.5111649131       -1.1957242060
 C         -1.2817074708       -5.0042662819       -1.3014694754
 C         -2.6080430242       -4.3273506031       -1.1341627013
 H         -3.2841092766       -4.2975415680       -1.9753085532
 H         -3.1057302887       -4.3983639957       -0.1776503592
 H         -1.0507527067       -5.4433301311       -2.2600938573
 H         -0.8813811161       -5.5465633330       -0.4583259867
 H         -1.1827250049       -2.9225799507       -2.0895928282
