  62
        -98.93929912
 C          2.0521947915        0.8603449670        0.0181501273
 C          2.3070348190       -0.1320064454        0.9894988863
 C          2.2851660096       -1.5303378295        0.5289076374
 C          2.0223100634       -1.7931049655       -0.7651071799
 C          1.8549764944       -3.1061694898       -1.5021190910
 C          2.2878267290       -4.4236395012       -0.8644185546
 C          3.7973799538       -4.5785733246       -0.6817149128
 H          3.9813058307       -5.5015254841       -0.1277654039
 H          4.2565451980       -4.6833884959       -1.6677161764
 C          4.4951684239       -3.4230548459        0.0308681083
 H          4.3937542133       -2.5118025730       -0.5619386353
 H          5.5616315882       -3.6576123086        0.0837936286
 C          4.0103991887       -3.1446233146        1.4521416894
 H          4.6925566418       -2.4146355668        1.8958161065
 H          4.0659583626       -4.0588022277        2.0461341889
 C          2.5863552213       -2.5730880900        1.5670951326
 H          1.8365455787       -3.3610549196        1.5445031794
 H          2.4985365190       -2.0715856064        2.5356550586
 H          1.9524912914       -5.2185238556       -1.5362090112
 H          1.7702093928       -4.5701747261        0.0790939150
 H          2.3753362635       -2.9811171537       -2.4572707857
 H          0.7861362785       -3.1660061567       -1.7385393654
 O          1.8017028870       -0.7974968021       -1.6731296906
 C          1.7810846550        0.5364598775       -1.3099061709
 O          1.5354728279        1.3216989869       -2.2463015051
 O          2.5297334931        0.1376650436        2.2027675114
 C          1.9539794528        2.3132343619        0.4458037700
 C          0.5628229656        2.8160602701        0.1433238918
 C          0.2965749339        4.0533413176       -0.4279826804
 C         -1.0053005340        4.4198597251       -0.7248863951
 C         -2.0599938874        3.5614646087       -0.4764041639
 C         -1.8050035623        2.3291169708        0.1158888425
 C         -0.5063002771        1.9808079641        0.4426571916
 H         -0.3219801582        1.0203284905        0.9030460207
 N         -2.8482106693        1.4299889455        0.4034956764
 S         -2.5184489679       -0.2229227207        0.2736222071
 O         -1.9156772240       -0.6725177541        1.5046248325
 O         -1.7876514721       -0.5039955416       -0.9416623573
 C         -4.1784784913       -0.8664964037        0.1608697373
 C         -4.6962625949       -1.1998562112       -1.0762437434
 C         -5.9973982595       -1.6719534141       -1.1535467502
 C         -6.7552934780       -1.7983670880        0.0008592967
 C         -6.2217761857       -1.4599069544        1.2357668631
 C         -4.9212164655       -0.9889386017        1.3202415600
 H         -4.4591960719       -0.7230772651        2.2566005432
 H         -6.8129096146       -1.5621715141        2.1313892637
 H         -7.7671892410       -2.1660653983       -0.0622142723
 H         -6.4128373107       -1.9389820272       -2.1118394692
 H         -4.0655921728       -1.0914124915       -1.9443351701
 H         -3.7101902586        1.6704853662       -0.0676724898
 H         -3.0702121365        3.8378756845       -0.7373690857
 H         -1.1983015478        5.3809546490       -1.1769075660
 H          1.1089001721        4.7238577486       -0.6560918345
 H          2.0933047105        2.3096744750        1.5376853701
 C          3.0506901109        3.1434237320       -0.1866093806
 C          3.5824196213        4.3563129292        0.5155017123
 C          4.4196785652        3.1174329328        0.4221567299
 H          5.2759995848        3.1184639951       -0.2352815443
 H          4.5527533910        2.5189313708        1.3116474255
 H          3.8684781597        5.2112895839       -0.0782411260
 H          3.1541375896        4.6058511891        1.4744578878
 H          2.9829215705        3.1615738177       -1.2686460390
