  62
        -98.94019287
 C         -2.5513400389       -1.1032787902       -0.1241134259
 C         -2.4067606297        0.3043156563       -0.0837991153
 C         -3.5711943816        1.0520430795        0.4132904453
 C         -4.6650460574        0.3801240364        0.8166011880
 C         -5.9363677153        1.0177414238        1.2956816538
 C         -6.9155017177        1.2475918538        0.1358437316
 C         -6.2865880111        1.9339681807       -1.0766015238
 H         -5.5432492522        1.2664300562       -1.5182358382
 H         -7.0763556211        2.0716091802       -1.8182229493
 C         -5.6314772518        3.2880483465       -0.7703979891
 H         -5.9251156173        4.0020225824       -1.5427493433
 H         -5.9998285226        3.6713399375        0.1818052936
 C         -4.1019401217        3.2620999988       -0.7471246830
 H         -3.7437487282        4.2950610127       -0.7405890527
 H         -3.7290900195        2.7928401635       -1.6610218571
 C         -3.4646540590        2.5505997450        0.4533422655
 H         -2.3934417494        2.7742751627        0.4442926259
 H         -3.8873170141        2.9428836205        1.3807116806
 H         -7.7502631032        1.8470685276        0.5034443811
 H         -7.3067768559        0.2790732453       -0.1837811014
 H         -5.7014709833        1.9634992946        1.7801553509
 H         -6.4007067855        0.3518888515        2.0250268253
 O         -4.7539888948       -0.9742355073        0.7910767745
 C         -3.7066706867       -1.7475728259        0.3191976001
 O         -3.9197831224       -2.9764426367        0.3482117254
 O         -1.3639312120        0.9092793224       -0.4483632767
 C         -1.4106488993       -1.9727883815       -0.6252628244
 C         -0.2090772301       -1.7646914743        0.2647467089
 C         -0.3312688413       -2.0634310005        1.6196052538
 C          0.7272547145       -1.8645510436        2.4837101208
 C          1.9326365793       -1.3655168440        2.0193125397
 C          2.0635108822       -1.0582215119        0.6725805938
 C          0.9974544303       -1.2668536102       -0.1965909124
 H          1.1124286427       -1.0197977643       -1.2404181375
 N          3.2897303485       -0.5782432628        0.1675019944
 S          4.0838413547        0.6927507694        0.9450635149
 O          4.4496906424        0.2734237443        2.2740354660
 O          3.3110033453        1.9129071323        0.8534491767
 C          5.5428491295        0.8072576447       -0.0719729603
 C          5.6359191290        1.7996435107       -1.0284132117
 C          6.7682492543        1.8576593179       -1.8261175737
 C          7.7805021430        0.9254247700       -1.6562968892
 C          7.6721365856       -0.0655692898       -0.6917316837
 C          6.5437904269       -0.1279644427        0.1099015993
 H          6.4200388527       -0.8741061146        0.8770097537
 H          8.4624018518       -0.7872913705       -0.5620380903
 H          8.6604122864        0.9731081329       -2.2782491273
 H          6.8560297803        2.6283221370       -2.5750254774
 H          4.8274993584        2.5074535952       -1.1204761966
 H          3.2114314371       -0.3489252323       -0.8153860937
 H          2.7590583194       -1.1944947055        2.6887563569
 H          0.6167699777       -2.0990354821        3.5321138486
 H         -1.2748626846       -2.4470467864        1.9848348308
 H         -1.7460104048       -3.0124371709       -0.5032701230
 C         -1.1497093908       -1.7136818633       -2.0936858663
 C         -0.4684862229       -2.7557311788       -2.9276518150
 C         -1.9301523713       -2.4834314994       -3.1146960325
 H         -2.2506012449       -1.9729639365       -4.0105691392
 H         -2.6397845587       -3.2122451882       -2.7508630220
 H          0.2138319778       -2.4349299216       -3.7002873140
 H         -0.1826359898       -3.6752507379       -2.4399307714
 H         -0.9455990417       -0.6705784400       -2.3064217202
