  62
        -98.94468663
 C         -2.0743857503        0.3723925079        0.1665352736
 C         -3.0641377365        0.8590430922       -0.7241441533
 C         -4.2501686781        0.0117089056       -0.8993141789
 C         -4.3160297945       -1.1669490169       -0.2537053895
 C         -5.4839337096       -2.1079619953       -0.3047228762
 C         -6.4841771066       -1.8144821178        0.8222978947
 C         -6.8703098758       -0.3398271319        0.9377164310
 H         -7.6020162022       -0.2578843038        1.7443818098
 H         -5.9925392045        0.2356394703        1.2403853886
 C         -7.4546661012        0.2660465661       -0.3459837098
 H         -7.7857837096       -0.5299363729       -1.0139348373
 H         -8.3351398023        0.8569417767       -0.0848380428
 C         -6.5016220788        1.1958326118       -1.0993041538
 H         -6.0950874048        1.9399344536       -0.4097887454
 H         -7.0787844134        1.7326339746       -1.8568486955
 C         -5.3306000896        0.5121371682       -1.8163359135
 H         -5.7064696715       -0.2964957225       -2.4464991130
 H         -4.8548289349        1.2570482015       -2.4608292219
 H         -7.3798580192       -2.4150764382        0.6534691559
 H         -6.0392371852       -2.1271682375        1.7698428465
 H         -5.9741057494       -2.0182342390       -1.2722473812
 H         -5.1097159623       -3.1267809503       -0.1904806423
 O         -3.3327501640       -1.6172773590        0.5652295187
 C         -2.1926198687       -0.8623018453        0.8047695914
 O         -1.3891272951       -1.3972344285        1.5923048547
 H          1.0863510405       -0.3924168884        1.5176740663
 C          1.2200436115       -0.2676166277        0.4550460546
 C          0.3394204279        0.5257342149       -0.2637444131
 C          0.5229410962        0.6490206051       -1.6385409356
 C          1.5537278205       -0.0144150405       -2.2769431388
 C          2.4217670068       -0.8187434973       -1.5591774591
 C          2.2461503297       -0.9488253084       -0.1879476285
 N          3.1174106450       -1.7686878301        0.5459080315
 S          4.7553552144       -1.6829542595        0.2325576912
 O          5.0693805139       -2.4525966932       -0.9459834828
 O          5.3992630541       -2.1109271206        1.4546667227
 C          5.0822836312        0.0446884389       -0.0723294154
 C          5.5684939296        0.4496695804       -1.2984483760
 C          5.7894838926        1.7998603908       -1.5193499274
 C          5.5183856199        2.7169002696       -0.5161844102
 C          5.0327587883        2.2940035455        0.7119163983
 C          4.8108516963        0.9456819197        0.9384091509
 H          4.4397913589        0.5836641139        1.8836797402
 H          4.8239802639        3.0092060550        1.4912194580
 H          5.6872094403        3.7677965428       -0.6905637649
 H          6.1689252639        2.1312586416       -2.4724581473
 H          5.7647163562       -0.2966816487       -2.0508890949
 H          2.9178068345       -1.8062054585        1.5339085556
 H          3.2189873610       -1.3602419695       -2.0419937440
 H          1.6816639215        0.0898162694       -3.3436059008
 H         -0.1651579138        1.2634293581       -2.2020367871
 C         -0.8320380407        1.2215838243        0.3832723507
 H         -1.0204883564        2.1516546020       -0.1696464922
 C         -0.6193723991        1.5595555840        1.8436581695
 C          0.3141052129        2.6736499947        2.2089318805
 C         -1.1642908106        2.8475934021        2.3809623416
 H         -1.5716212147        2.8563219629        3.3810070484
 H         -1.6873131924        3.4949178117        1.6923742176
 H          0.7944840342        3.2028737888        1.4002238496
 H          0.9240792177        2.5676086081        3.0928953173
 H         -0.6638754924        0.6966845594        2.4968757683
 O         -2.9600212718        1.9525946299       -1.3409542616
