  62
        -98.94600878
 C         -2.0245242913       -0.1781227548        0.5107463842
 C         -1.6347583487        0.9675695687        1.2485500734
 C         -1.6513299538        2.2440805611        0.5264974417
 C         -1.9691679898        2.2636477502       -0.7802541073
 C         -2.0369142595        3.4836908420       -1.6584295178
 C         -0.6761635991        3.9116752080       -2.2249460013
 C          0.2592540612        4.5862127714       -1.2208769900
 H         -0.2737188709        5.3898307311       -0.7107135383
 H          1.0690926065        5.0418921011       -1.7941445180
 C          0.8676706854        3.6276966397       -0.1877834379
 H          1.9378548266        3.8287730940       -0.0910586316
 H          0.7736278211        2.6011507839       -0.5527165117
 C          0.2584070054        3.7356129022        1.2104581222
 H          0.4606944400        4.7286331163        1.6185001162
 H          0.7479285594        3.0028509613        1.8557413722
 C         -1.2541400426        3.4851827298        1.2694930460
 H         -1.7915562167        4.3464857922        0.8724671175
 H         -1.5367673869        3.3483483405        2.3165186611
 H         -0.8666366521        4.6114584715       -3.0423518516
 H         -0.1811688203        3.0319565941       -2.6451356425
 H         -2.4812710506        4.3127106841       -1.1062050412
 H         -2.6933205214        3.2287741511       -2.4933778474
 O         -2.2952168916        1.1395419537       -1.4670916498
 C         -2.3000297532       -0.1075708260       -0.8569476675
 O         -2.5795836187       -1.0407576778       -1.6331250037
 O         -1.2847838261        0.9258380608        2.4593249978
 C         -1.9707668284       -1.5258531218        1.2142900039
 C         -1.1490390497       -2.4666109409        0.3696984686
 C         -1.5935084103       -3.6841876186       -0.1241552211
 C         -0.7877456662       -4.4215142329       -0.9759571331
 C          0.4505480406       -3.9517259619       -1.3722865440
 C          0.9083791571       -2.7366278311       -0.8720177829
 C          0.1264743190       -2.0355336581        0.0268885693
 H          0.4799484777       -1.0946656836        0.4169496010
 N          2.1527109971       -2.2158226434       -1.2515304975
 S          2.4543347190       -0.5681184883       -1.2680497354
 O          1.2674590496        0.2197813186       -1.5020201092
 O          3.5196760578       -0.4176955673       -2.2378411698
 C          3.1232636341       -0.2679139654        0.3554177510
 C          2.4153275168        0.4579052651        1.2907654606
 C          2.9645200891        0.6517239754        2.5487613400
 C          4.2089071927        0.1204003139        2.8483625789
 C          4.9122875188       -0.6026173822        1.8961794175
 C          4.3664314985       -0.8006394429        0.6388564012
 H          4.8822443424       -1.3467649850       -0.1331359060
 H          5.8812973507       -1.0123600742        2.1312509677
 H          4.6312027534        0.2730500160        3.8289792629
 H          2.4093808134        1.2107468428        3.2856483117
 H          1.4473262249        0.8594652086        1.0321761385
 H          2.6040639965       -2.6943146668       -2.0164009765
 H          1.0541092793       -4.5093846473       -2.0722290754
 H         -1.1443542198       -5.3643083822       -1.3628300122
 H         -2.5797415275       -4.0398861809        0.1251239832
 H         -1.4122943431       -1.3229828474        2.1439893623
 C         -3.3186226586       -2.0885975083        1.6343056651
 C         -4.4824973562       -1.1820309963        1.8991322525
 C         -4.5064415845       -2.1074117390        0.7214945813
 H         -5.1649974885       -2.9630796785        0.7583279011
 H         -4.3842193004       -1.6923693835       -0.2662169638
 H         -5.1232566404       -1.3994634823        2.7404733731
 H         -4.3442977204       -0.1263130596        1.7144338087
 H         -3.2099803098       -2.9358584251        2.3046414818
