  62
        -98.93969580
 C          2.1164882250        0.3826214351        0.2662428668
 C          2.8190475986       -0.8336896867        0.0655447560
 C          4.1738912970       -0.7254808847       -0.4892516110
 C          4.6618272941        0.4913967921       -0.7907700962
 C          6.0430883616        0.7578882978       -1.3135108699
 C          7.0317293642        1.0133131967       -0.1673252712
 C          6.9708972600       -0.0331086660        0.9453765579
 H          7.7308573412        0.2320372428        1.6835965921
 H          6.0014119080        0.0328507900        1.4446035795
 C          7.1985598206       -1.4758768276        0.4730789739
 H          7.6719026678       -1.4741668909       -0.5094276326
 H          7.8876451568       -1.9661755947        1.1639998798
 C          5.9328990531       -2.3339143067        0.4232242403
 H          5.4045921033       -2.2646614789        1.3776275507
 H          6.2338086082       -3.3767767449        0.2918739083
 C          4.9432358862       -1.9990285683       -0.6999327994
 H          5.4672835672       -1.9786046550       -1.6577684567
 H          4.1961052261       -2.7975215001       -0.7337711597
 H          8.0405836772        1.0468894481       -0.5825678107
 H          6.8109192648        1.9900414254        0.2692252030
 H          6.3707013464       -0.0933336525       -1.9071880985
 H          6.0046344802        1.6420778110       -1.9518785344
 O          3.9551239100        1.6330289237       -0.6072681304
 C          2.6692854349        1.6177133336       -0.0764915945
 O          2.1608202509        2.7482715266        0.0248315055
 O          2.3315390885       -1.9623026105        0.3464952808
 C          0.7245904296        0.2686351414        0.8598210546
 C         -0.3242580755        0.1413762731       -0.2164548982
 C         -0.3359560720        0.9882944228       -1.3211172261
 C         -1.3066852714        0.8568256867       -2.2968548065
 C         -2.2967826857       -0.1036939188       -2.1794641549
 C         -2.2987152963       -0.9485030659       -1.0770340267
 C         -1.3090474097       -0.8297743723       -0.1103494934
 H         -1.3205683730       -1.5047438040        0.7317659958
 N         -3.3028908093       -1.9247313762       -0.9074360022
 S         -4.3289144653       -1.7254432444        0.4026429979
 O         -3.5634943566       -1.7349755948        1.6212358485
 O         -5.3395184754       -2.7480749042        0.2592089816
 C         -5.0536055422       -0.1161588889        0.1393895049
 C         -4.3485326114        1.0048629040        0.5298074999
 C         -4.8746354174        2.2567587688        0.2529402380
 C         -6.0891354462        2.3653329759       -0.4070911687
 C         -6.7860359042        1.2296333473       -0.7916345843
 C         -6.2627669738       -0.0247429511       -0.5221257114
 H         -6.7716065611       -0.9340909382       -0.7988199582
 H         -7.7316544413        1.3179544325       -1.3018883035
 H         -6.4944541223        3.3416382715       -0.6212030646
 H         -4.3309403738        3.1384604195        0.5525807635
 H         -3.4102040341        0.8844781209        1.0455167619
 H         -3.8538704254       -2.0864470187       -1.7394613824
 H         -3.0589373416       -0.2020242482       -2.9378354740
 H         -1.2991389279        1.5163149219       -3.1512278617
 H          0.4204322399        1.7542975721       -1.4006427155
 H          0.7331662997       -0.6832437645        1.4150229944
 C          0.3973521820        1.3734654424        1.8567654599
 C         -0.6848345449        2.3826947251        1.6314422931
 C         -0.8732644497        1.3020665405        2.6514309284
 H         -0.8428517374        1.5665640711        3.6977947026
 H         -1.5559875087        0.4939165693        2.4281474841
 H         -0.5048502801        3.3907703062        1.9719484922
 H         -1.2465234914        2.3286741163        0.7118980689
 H          1.2796058185        1.7236835509        2.3817914553
