  62
        -98.93869418
 C         -2.1863600786       -1.0920004697        0.2477263306
 C         -1.5988812929       -0.2470507303       -0.7245705334
 C         -2.1460452547        1.1196814414       -0.8266966604
 C         -3.0808815454        1.5247678215        0.0484291001
 C         -3.8358373193        2.8304536352        0.1154387558
 C         -3.0911569096        4.1217314712       -0.2346171504
 C         -1.6412515892        4.1856998117        0.2667267987
 H         -1.4968727626        5.1120839477        0.8262197093
 H         -1.4392453616        3.3585933781        0.9509334088
 C         -0.6145465925        4.1485995650       -0.8665139653
 H          0.3309452082        4.5509337723       -0.4943506946
 H         -0.9542717459        4.7953774999       -1.6790086473
 C         -0.3249480925        2.7518673306       -1.4107950296
 H          0.3901204872        2.8483702484       -2.2317001870
 H          0.1561555877        2.1600350188       -0.6280522548
 C         -1.5540929543        1.9739319054       -1.9119137978
 H         -2.2949180886        2.6438176045       -2.3428454265
 H         -1.2202203008        1.2812902011       -2.6893526781
 H         -3.6649579848        4.9401628286        0.2042927407
 H         -3.1045368013        4.2721455286       -1.3129624776
 H         -4.7143048033        2.7396783346       -0.5316596866
 H         -4.2031460012        2.8910206729        1.1434717952
 O         -3.5348521533        0.7110284484        1.0470188352
 C         -3.1043740209       -0.5965767972        1.1734862637
 O         -3.6017513967       -1.2075599233        2.1432158094
 H         -0.1264008275       -1.2415686850        2.0445531146
 C          0.4375351632       -1.8255192756        1.3259121046
 C         -0.2452640906       -2.6020630723        0.3970805366
 C          0.4934291850       -3.3363279023       -0.5210862313
 C          1.8762139962       -3.2674914322       -0.5266993049
 C          2.5478175913       -2.4494619550        0.3640789483
 C          1.8163301223       -1.7248522287        1.2947675646
 N          2.5043795270       -0.8053696322        2.1432838480
 S          2.3661521553        0.7595623323        1.5137539417
 O          3.1054032104        1.6131849341        2.4211238501
 O          0.9791517361        1.1283599628        1.3219400189
 C          3.2248025423        0.6176757526       -0.0343898950
 C          2.5388680495        0.2460071591       -1.1737783324
 C          3.2508058786        0.0928630894       -2.3541137013
 C          4.6201242302        0.3068715852       -2.3743587868
 C          5.2925019988        0.6762127171       -1.2186273924
 C          4.5901514667        0.8304818026       -0.0348979690
 H          5.0647116513        1.1172259946        0.8892052058
 H          6.3578799881        0.8407728060       -1.2361584329
 H          5.1662279102        0.1836632920       -3.2964153953
 H          2.7238424143       -0.2002569438       -3.2478311887
 H          1.4737265192        0.0743465954       -1.1356415390
 H          2.1270589477       -0.7888129456        3.0824776375
 H          3.6214194725       -2.3556292074        0.3452986805
 H          2.4357523046       -3.8370367148       -1.2523649491
 H         -0.0168004096       -3.9355377124       -1.2572547449
 C         -1.7511559098       -2.5389762749        0.4253935673
 H         -2.0836201604       -2.8110883057        1.4413309322
 C         -2.4211458372       -3.5150940795       -0.5293411890
 C         -3.7973085591       -3.2468380045       -1.0595846242
 C         -2.6182307979       -3.2095243074       -1.9824295629
 H         -2.5025273232       -4.0136098693       -2.6942188069
 H         -2.2760322603       -2.2526839912       -2.3423946812
 H         -4.4878279624       -4.0733984390       -1.1347585052
 H         -4.2644824236       -2.3118492361       -0.7845794731
 H         -2.2005939459       -4.5463986516       -0.2714615813
 O         -0.6814757625       -0.6110385251       -1.5032867526
