  62
        -98.94505547
 C         -0.7107384903       -1.6188442976       -1.1112627630
 C         -1.9950686612       -1.8531687501       -0.5582250850
 C         -2.9837839710       -0.7840394824       -0.7240037134
 C         -2.6367187076        0.3467552976       -1.3633501085
 C         -3.5156913120        1.5476453848       -1.5842861632
 C         -3.5623728632        2.4977349216       -0.3794370600
 C         -4.3995208075        2.0052058540        0.8017384770
 H         -4.5558013629        2.8612268577        1.4615402981
 H         -5.3792906086        1.6824985274        0.4466416078
 C         -3.7423250611        0.8786253083        1.6115767241
 H         -2.6695914525        0.8553705745        1.4022042950
 H         -3.8463902518        1.0928182368        2.6784620927
 C         -4.3364501232       -0.5100394053        1.3727678070
 H         -5.3661051065       -0.5346314790        1.7386827822
 H         -3.7545477825       -1.2319363157        1.9517794617
 C         -4.3306661736       -0.9645808860       -0.0918762902
 H         -5.0900937956       -0.4232772500       -0.6562809206
 H         -4.5681850444       -2.0313407132       -0.1174221672
 H         -3.9784908359        3.4474988666       -0.7245432872
 H         -2.5411392420        2.6823926417       -0.0349789263
 H         -3.0994904415        2.0879466596       -2.4374378048
 H         -4.5270121357        1.2265424245       -1.8360277899
 O         -1.4096242243        0.5231105167       -1.9130456913
 C         -0.4053548956       -0.4311951674       -1.7777485299
 O          0.6689813600       -0.0941262061       -2.3065884210
 O         -2.3007133107       -2.9170309186        0.0472829638
 C          0.3503819906       -2.6674367561       -0.8217381736
 C          0.9658810196       -2.3572784141        0.5205368283
 C          1.1276091263       -3.3297810866        1.4994307255
 C          1.6268410131       -2.9920965896        2.7460353682
 C          1.9416097538       -1.6794886313        3.0499944299
 C          1.7843754242       -0.7006521901        2.0750049731
 C          1.3343916439       -1.0520325373        0.8131760732
 H          1.2296147618       -0.2875688140        0.0606236077
 N          2.0713509467        0.6480958867        2.3276389983
 S          1.1343485737        1.8294967561        1.5914401321
 O          1.3023756173        2.9929695244        2.4407687180
 O         -0.2295830846        1.3942340095        1.3988371987
 C          1.9312849250        2.1551657474        0.0355525488
 C          3.2934753864        1.9673777465       -0.0845128422
 C          3.9050075510        2.2734302181       -1.2889607031
 C          3.1511767214        2.7658777745       -2.3429615764
 C          1.7861231125        2.9543030472       -2.2035877538
 C          1.1680593031        2.6468965577       -1.0028940108
 H          0.1039070844        2.7583500445       -0.8635456208
 H          1.1957788288        3.3251433927       -3.0259533725
 H          3.6284028181        2.9980333449       -3.2820935500
 H          4.9663158451        2.1215287450       -1.4040022894
 H          3.8477692648        1.5754318058        0.7523864844
 H          2.2858504236        0.8762595731        3.2873057803
 H          2.2955420355       -1.4110988631        4.0336527781
 H          1.7483640186       -3.7556969765        3.4992938823
 H          0.8367289684       -4.3483846739        1.2887095678
 H         -0.1989550944       -3.6173817858       -0.7219832336
 C          1.3776739578       -2.8443194704       -1.9279011662
 C          2.7819817378       -2.3366534986       -1.8316564075
 C          2.5138026235       -3.8075304915       -1.7463130490
 H          2.7956347180       -4.4359882174       -2.5773499478
 H          2.6168804391       -4.2776941064       -0.7800096732
 H          3.2287578085       -1.9358196886       -2.7280488609
 H          3.0731723720       -1.8153788124       -0.9333105333
 H          0.9206960726       -2.8070913464       -2.9111813817
