  62
        -98.94528065
 C         -2.3481047096       -1.0690249912        0.1441795610
 C         -1.9861437299       -0.1487410713       -0.8693552292
 C         -2.6468073305        1.1636021785       -0.8039280696
 C         -3.5298471106        1.4112681184        0.1806557303
 C         -4.2277119012        2.7226602381        0.3962835100
 C         -3.4272709816        3.6288614687        1.3425218398
 C         -1.9488811116        3.7541194792        0.9736091299
 H         -1.4901187619        4.4366077495        1.6927031798
 H         -1.4669615512        2.7817230994        1.1027599202
 C         -1.6911014317        4.2621526290       -0.4518762102
 H         -2.5884689319        4.7453617685       -0.8397386304
 H         -0.9049899520        5.0194592293       -0.4155354103
 C         -1.2284260412        3.1847651389       -1.4343913799
 H         -0.3892230710        2.6339963694       -1.0027270197
 H         -0.8699812414        3.6842396089       -2.3383531800
 C         -2.2923131708        2.1675016684       -1.8645657598
 H         -3.1839166910        2.6906300880       -2.2154373599
 H         -1.8809153205        1.5887406184       -2.6965739096
 H         -3.8878083820        4.6183714785        1.3462291296
 H         -3.4944205915        3.2199799389        2.3535945299
 H         -4.3684210113        3.2159533679       -0.5633885601
 H         -5.2050164811        2.5240276378        0.8393048100
 O         -3.8512843403        0.5006541684        1.1356234905
 C         -3.2651772198       -0.7557787413        1.1462387408
 O         -3.6323552296       -1.4875635513        2.0886306610
 H         -0.2431287598       -0.7586958900        1.5825055610
 C          0.3805176305       -1.4281390599        1.0021470312
 C         -0.2228590691       -2.3752000703        0.1845495814
 C          0.5915893213       -3.2282498001       -0.5496311484
 C          1.9695290313       -3.1320527396       -0.4612124483
 C          2.5658603808       -2.1875415191        0.3533105515
 C          1.7611916004       -1.3235138193        1.0854663413
 N          2.3461917000       -0.3589071389        1.9191786411
 S          3.7525835097        0.4153203316        1.4587914310
 O          4.8772507500       -0.4597831879        1.6799586513
 O          3.7549170292        1.6492446718        2.2127094107
 C          3.5927489397        0.7586339211       -0.2837648191
 C          2.5891917894        1.6147494906       -0.6907763593
 C          2.4487783893        1.8895791503       -2.0408561794
 C          3.3083659496        1.3031729204       -2.9569625292
 C          4.3146342999        0.4499390309       -2.5326401090
 C          4.4609938400        0.1736845413       -1.1828150689
 H          5.2337286302       -0.4786279783       -0.8097176787
 H          4.9837967302       -0.0010635190       -3.2475245788
 H          3.1916223496        1.5162927601       -4.0077350393
 H          1.6677726191        2.5536880499       -2.3742351196
 H          1.9421628591        2.0595870905        0.0492362305
 H          1.6911585797        0.2778567010        2.3460419809
 H          3.6369004908       -2.1153502387        0.4453533816
 H          2.5894411116       -3.8041525994       -1.0344678681
 H          0.1470754417       -3.9708197905       -1.1913296082
 C         -1.7305813590       -2.4547102209        0.1564278913
 H         -2.0609004889       -2.9276383408        1.0935747114
 C         -2.2663373886       -3.2630679114       -1.0085730285
 C         -2.4443519981       -4.7458678214       -0.8867250682
 C         -3.6425447084       -3.8463860219       -0.9063901885
 H         -4.2726999584       -3.8412848024       -1.7830949385
 H         -4.1799349285       -3.6855104919        0.0172752914
 H         -2.1750447779       -5.2077771611        0.0512055319
 H         -2.2551260277       -5.3615833116       -1.7531681381
 H         -1.9642673088       -2.8583535915       -1.9677254686
 O         -1.1547522398       -0.4052908011       -1.7772078991
