  62
        -98.93979845
 C         -0.7316557766        1.7884372301       -0.0792693723
 C         -1.9428745981        1.6369242798       -0.7949042955
 C         -2.9317600248        0.6908846521       -0.2466661053
 C         -2.6179256816        0.0056858442        0.8678210358
 C         -3.4750160607       -1.0076869631        1.5766704417
 C         -3.4801608736       -2.3879785316        0.8863713825
 C         -3.3356204007       -2.3567824764       -0.6355741234
 H         -2.4775276469       -1.7380864060       -0.9111426221
 H         -3.1094387367       -3.3718615666       -0.9753431476
 C         -4.5764897592       -1.8815612256       -1.3905859936
 H         -5.3551041735       -2.6434651333       -1.2992176731
 H         -4.3127807334       -1.8005154345       -2.4483300787
 C         -5.1680341479       -0.5521078428       -0.9274338132
 H         -5.5701102279       -0.6539898587        0.0770849401
 H         -6.0143805008       -0.3257874257       -1.5830140858
 C         -4.2282550086        0.6486708587       -1.0163403924
 H         -3.9439424897        0.7987400051       -2.0639379801
 H         -4.7911596851        1.5469340821       -0.7317835901
 H         -2.6434395242       -2.9680291850        1.2805636642
 H         -4.4011250661       -2.9101238533        1.1501011246
 H         -3.0681526029       -1.1190538204        2.5834478054
 H         -4.4835428646       -0.6124750312        1.6706288312
 O         -1.4155428168        0.1344413004        1.4910556701
 C         -0.4393807879        1.0079336776        1.0397003239
 O          0.6079930844        0.9893077149        1.7110425683
 O         -2.1920803530        2.2698205225       -1.8580150961
 C          0.2950873144        2.7615708395       -0.6265686424
 C          1.6584740203        2.1179933093       -0.6842519618
 C          2.8279761983        2.7465124200       -0.2760479135
 C          4.0463934826        2.0979163658       -0.3811006250
 C          4.1242485559        0.8085911003       -0.8728241023
 C          2.9581066423        0.1680913578       -1.2770126595
 C          1.7458186679        0.8309195414       -1.2006013272
 H          0.8504493410        0.3233590794       -1.5292753924
 N          2.9865808801       -1.1494264667       -1.7685343961
 S          1.8199362703       -2.2329092341       -1.2707517451
 O          2.3803520659       -3.5294439737       -1.5983129129
 O          0.5532279586       -1.9339554599       -1.8926824447
 C          1.6794647191       -2.1018547016        0.5026219753
 C          0.4455597412       -2.3435475814        1.0679115934
 C          0.3176289446       -2.3127331790        2.4461766181
 C          1.4223695310       -2.0356338270        3.2335919787
 C          2.6566919932       -1.7976120698        2.6517958588
 C          2.7924681164       -1.8375826072        1.2741581294
 H          3.7457565693       -1.6550646313        0.8059845786
 H          3.5137547199       -1.5738940744        3.2666439037
 H          1.3179957206       -1.9974969048        4.3065502712
 H         -0.6449448472       -2.4895047288        2.8993021713
 H         -0.3915608980       -2.5331762209        0.4143877220
 H          3.8998058142       -1.5804515389       -1.7770729195
 H          5.0737033541        0.2995960872       -0.9436626178
 H          4.9469927744        2.6001689293       -0.0623773362
 H          2.7885871789        3.7405369158        0.1373299216
 H         -0.0300771819        2.9408064313       -1.6662904803
 C          0.2963760698        4.1179785990        0.0659260870
 C         -0.8696657020        4.5763613224        0.8886086856
 C          0.4308642008        4.2444496155        1.5531561484
 H          1.0242838863        5.0557029718        1.9487539522
 H          0.4986170224        3.3304684596        2.1217936312
 H         -1.1668207972        5.6123014388        0.8198298888
 H         -1.6972562775        3.8928127890        1.0131282520
 H          0.7804217517        4.8823729470       -0.5341520086
