  62
        -98.94478692
 C          2.0322012077       -0.9920177231        0.4472063266
 C          3.0928600512       -1.2494081840       -0.4584882364
 C          4.3678702530       -0.5889599484       -0.1622047915
 C          4.4739901102        0.1988541696        0.9231633070
 C          5.7102671911        0.9323919850        1.3670849839
 C          5.9163133669        2.2834508225        0.6683626527
 C          6.3555679062        2.2000432664       -0.7940908545
 H          6.6716237790        3.2022749064       -1.0904714239
 H          7.2257465587        1.5477160526       -0.8742936301
 C          5.2608634977        1.7232200221       -1.7589223647
 H          4.2841054366        1.8179933232       -1.2783170869
 H          5.2461084359        2.3688847950       -2.6399098895
 C          5.4328987742        0.2868911790       -2.2533172580
 H          4.5852167862        0.0439411834       -2.8988845924
 H          6.3439480787        0.2120737270       -2.8511344257
 C          5.4940148591       -0.7628869701       -1.1359895561
 H          6.4534412620       -0.7101804162       -0.6220058662
 H          5.3924299679       -1.7520294653       -1.5890239353
 H          4.9894200845        2.8577539912        0.7382269661
 H          6.6846723835        2.8244669526        1.2255069985
 H          6.5867944342        0.3029536638        1.2110836713
 H          5.5973583591        1.1127275816        2.4383483423
 O          3.4381349903        0.4094112490        1.7766749380
 C          2.1897826566       -0.1558073080        1.5523952174
 O          1.3371211349        0.1541025072        2.4068069249
 O          2.9782630888       -1.9988523123       -1.4639470185
 C          0.6808510666       -1.6219774116        0.1522716725
 C         -0.2635934472       -0.5353742682       -0.2977819044
 C         -0.2522253976       -0.1267110006       -1.6283559636
 C         -1.0846849315        0.8873977948       -2.0645049892
 C         -1.9456060638        1.5164527001       -1.1822198152
 C         -1.9575746956        1.1207111630        0.1485002198
 C         -1.1300258298        0.0941791822        0.5827365224
 H         -1.1383625510       -0.1915741928        1.6225557428
 N         -2.8416788897        1.7502366782        1.0451648590
 S         -4.4536693260        1.7756015294        0.5912631500
 O         -4.6814349524        2.8674937824       -0.3223438391
 O         -5.2051445695        1.8194529466        1.8260458372
 C         -4.7031527011        0.2216279453       -0.2501225946
 C         -4.5305310515       -0.9422355952        0.4728689363
 C         -4.6557079766       -2.1592781135       -0.1760166866
 C         -4.9468318093       -2.1917752387       -1.5312941393
 C         -5.1219003888       -1.0148774379       -2.2419812151
 C         -4.9957563514        0.2057986218       -1.5982730038
 H         -5.1182572394        1.1444377295       -2.1134279899
 H         -5.3501112698       -1.0437317306       -3.2951992273
 H         -5.0380674509       -3.1410912267       -2.0350756561
 H         -4.5195113854       -3.0761873019        0.3746622311
 H         -4.3088996616       -0.8820674569        1.5262957760
 H         -2.7361972871        1.4361956064        1.9988918330
 H         -2.6029273143        2.3098401655       -1.4997888946
 H         -1.0648634953        1.1918013792       -3.0998134358
 H          0.4270929365       -0.6110506531       -2.3156522435
 H          0.8571377224       -2.2912007839       -0.7004879516
 C          0.1506035355       -2.4392524915        1.3119893822
 C         -1.0317507666       -3.3334583452        1.0892005262
 C          0.3274318465       -3.9266602482        1.3039761020
 H          0.5321060209       -4.4248160276        2.2398981022
 H          0.8344871358       -4.3654027349        0.4573124795
 H         -1.7623266762       -3.4271731534        1.8780512196
 H         -1.4487221150       -3.3638967518        0.0940155025
 H          0.2347181164       -1.9373872593        2.2680782144
