  62
        -98.93966428
 C         -2.1479163494       -0.3384560001        0.3298997300
 C         -3.2068688794       -0.6494634902       -0.5585898499
 C         -4.1778590393        0.4274353598       -0.7978509702
 C         -4.0047781192        1.6327063800       -0.2282813805
 C         -4.8944880491        2.8336298800       -0.4021176208
 C         -6.1170298191        2.8439351203        0.5261913492
 C         -7.2125738192        1.8374770504        0.1718669595
 H         -8.0919098892        2.1008544106        0.7630117194
 H         -7.4810032392        1.9498274701       -0.8789628005
 C         -6.8455411593        0.3747011704        0.4582604299
 H         -5.9905468693        0.3399734305        1.1374872699
 H         -7.6778351194       -0.1167610594        0.9671151500
 C         -6.5225979294       -0.4526060799       -0.7859463399
 H         -7.4137700194       -0.5362098100       -1.4118083099
 H         -6.2401459195       -1.4581960299       -0.4646320597
 C         -5.3783198294        0.1108245097       -1.6385713401
 H         -5.0839834294       -0.6506740005       -2.3645686999
 H         -5.7107077593        0.9981713096       -2.1764035503
 H         -5.7784344691        2.6693366906        1.5501430193
 H         -6.5477177990        3.8471051504        0.4854803990
 H         -4.2816685390        3.7086404500       -0.1748513810
 H         -5.2230361791        2.8993039398       -1.4397246908
 O         -2.9512679092        1.9074893801        0.5875280595
 C         -2.0240245193        0.9303107901        0.9052117697
 O         -1.1449514892        1.3084599102        1.7078861996
 H          1.5168355306       -0.6191072102        0.9348694601
 C          1.2904506506       -1.0372800605       -0.0348679198
 C         -0.0022574295       -1.4493418304       -0.3265641697
 C         -0.2737285495       -1.9647610407       -1.5898775996
 C          0.7297283705       -2.0556391810       -2.5365194196
 C          2.0163858605       -1.6393698511       -2.2446033897
 C          2.3001047205       -1.1295316908       -0.9827560798
 N          3.6126296406       -0.7491090008       -0.6511212499
 S          3.8637889107        0.5643843794        0.3788173598
 O          3.6142211107        0.1463581198        1.7352047299
 O          3.1288561108        1.7169714194       -0.0934990705
 C          5.6153598507        0.8036235592        0.1421116897
 C          6.0626892408        1.8129929790       -0.6888296905
 C          7.4265538008        1.9639585188       -0.8862011906
 C          8.3145568807        1.1056628989       -0.2556391504
 C          7.8505746807        0.0977818891        0.5769022699
 C          6.4886861006       -0.0574470107        0.7798810999
 H          6.0819687906       -0.8191394905        1.4242475401
 H          8.5440078006       -0.5658900308        1.0676973400
 H          9.3750683508        1.2246636187       -0.4119134004
 H          7.7900331909        2.7486851886       -1.5298793408
 H          5.3352760809        2.4604239389       -1.1518603107
 H          4.2115847706       -0.6864294411       -1.4638577299
 H          2.7976877005       -1.7109816713       -2.9861300697
 H          0.5062907404       -2.4512539512       -3.5158885295
 H         -1.2799553296       -2.2746145507       -1.8252733395
 C         -1.0751836995       -1.3393161601        0.7309624003
 H         -0.6047967494       -0.9206307599        1.6318215902
 C         -1.6347654896       -2.7064165399        1.0762479006
 C         -0.8181695097       -3.6239104098        1.9332078308
 C         -2.0593966196       -2.9894084595        2.4840299207
 H         -2.9294635197       -3.6080432694        2.6450630408
 H         -1.9477789795       -2.1954046494        3.2088458005
 H         -0.8337365598       -4.6809085198        1.7167129911
 H          0.1358787404       -3.2594475198        2.2848137207
 H         -2.2225434096       -3.1452342801        0.2813498007
 O         -3.3595739795       -1.7582797803       -1.1346862096
