  62
        -98.94379092
 C          1.9078971839        1.0317683463        0.0680381475
 C          1.3146507954        1.8687769410       -0.9074199505
 C          0.2370965578        2.7578752994       -0.4412989487
 C         -0.0957026794        2.7643439769        0.8608047146
 C         -1.1206325397        3.6181832159        1.5643913175
 C         -2.4830069762        3.8017547608        0.8818346320
 C         -2.9667614385        2.6024073939        0.0534381617
 H         -2.3527816934        1.7232292336        0.2569401650
 H         -3.9888507377        2.3553797174        0.3471769275
 C         -2.9656315145        2.8766868682       -1.4521328003
 H         -3.6317450841        2.1595053297       -1.9386425901
 H         -3.3693864661        3.8765878389       -1.6295034885
 C         -1.6061763998        2.7527950921       -2.1398022158
 H         -1.3106009412        1.6998748027       -2.1706154814
 H         -1.7248292694        3.0769440355       -3.1772272410
 C         -0.4614219626        3.5581170574       -1.5014578692
 H          0.2853487631        3.7516661753       -2.2766861627
 H         -0.8184457976        4.5115613375       -1.1180842060
 H         -2.4544533904        4.6826040267        0.2418110384
 H         -3.2056657121        4.0106245169        1.6721471951
 H         -1.2626293283        3.1471525650        2.5395661687
 H         -0.6767130417        4.6018809091        1.7428658317
 O          0.5289885869        1.9684055378        1.7735024490
 C          1.5077944713        1.0567920646        1.4025856806
 O          1.9273153018        0.3528698788        2.3396586728
 H          0.7385157540       -0.8938932283       -1.5016191941
 C          1.1703142192       -1.6414985390       -0.8516488366
 C          2.3606797241       -1.3646330767       -0.1881531412
 C          2.9161373615       -2.3475679421        0.6193449651
 C          2.2766830274       -3.5659908568        0.7733069779
 C          1.0735571701       -3.8225247583        0.1423367912
 C          0.5135490804       -2.8492017646       -0.6792297578
 N         -0.7001475028       -3.0871808813       -1.3482847714
 S         -1.9184735579       -1.9434718928       -1.3749125349
 O         -3.0434452272       -2.6342054167       -1.9660771657
 O         -1.4713099337       -0.7546731017       -2.0510650046
 C         -2.2729606586       -1.5929729071        0.3358101971
 C         -1.4492183739       -0.7268537454        1.0254368288
 C         -1.6903359797       -0.4959249735        2.3703558172
 C         -2.7532594224       -1.1265391459        2.9980965414
 C         -3.5766040293       -1.9901541708        2.2908671165
 C         -3.3324596543       -2.2328831913        0.9489160806
 H         -3.9466601562       -2.8942059243        0.3594569426
 H         -4.4038131438       -2.4764341006        2.7823533277
 H         -2.9380301592       -0.9415080898        4.0444635422
 H         -1.0357181747        0.1692278164        2.9122061103
 H         -0.6305709942       -0.2476192238        0.5104916302
 H         -1.0901066730       -4.0039546609       -1.1822085676
 H          0.5704390944       -4.7678545215        0.2777624087
 H          2.7160024748       -4.3220101830        1.4060918120
 H          3.8423681000       -2.1575423618        1.1354584085
 C          2.9488588576        0.0144331946       -0.3687705325
 H          3.0907826540        0.1869209346       -1.4458337762
 C          4.2685258000        0.2242957007        0.3398780313
 C          5.5353038941       -0.2851357444       -0.2780344073
 C          5.2591963691        1.1870773737       -0.2400072686
 H          5.8333937606        1.8040186091        0.4347601625
 H          4.9903525483        1.6829506222       -1.1615124405
 H          6.3040350618       -0.6784818220        0.3695650771
 H          5.4583210448       -0.7903804023       -1.2289952971
 H          4.1760410020        0.1951256536        1.4191932344
 O          1.6765911442        1.8792513872       -2.1147828986
