  62
        -98.93552180
 C         -2.5225226495       -0.8399806847        0.7664842748
 C         -2.8471660882       -0.3735996822       -0.5319775340
 C         -3.6027574724        0.8893502855       -0.5879892601
 C         -3.9155001749        1.5287657196        0.5527048637
 C         -4.6377778883        2.8417450756        0.6336574536
 C         -3.6529594834        4.0192597084        0.6409627000
 C         -2.5972035496        3.9486317250       -0.4624985843
 H         -1.9791146584        4.8451186044       -0.3790166582
 H         -1.9456444449        3.0907875343       -0.2798756214
 C         -3.1696611999        3.8532871143       -1.8836207788
 H         -2.6212455688        4.5425010499       -2.5291171569
 H         -4.2133728499        4.1697202142       -1.8848968026
 C         -3.0607477581        2.4661377665       -2.5198086789
 H         -2.0330030116        2.1026298289       -2.4378044813
 H         -3.2885703002        2.5618426828       -3.5848169037
 C         -3.9967808205        1.3941054256       -1.9476602783
 H         -5.0227343782        1.7680711255       -1.9376919418
 H         -3.9524608968        0.5274074763       -2.6138304511
 H         -3.1400223394        4.0353284655        1.6053784619
 H         -4.2222869983        4.9453573833        0.5435544460
 H         -5.2173391833        2.8585910981        1.5582574931
 H         -5.3179828026        2.9281621354       -0.2113882586
 O         -3.5555868690        1.0687898603        1.7785919050
 C         -2.8408143963       -0.1096829563        1.9143261031
 O         -2.5443154521       -0.3931047535        3.0927760579
 O         -2.5354817474       -0.9679088435       -1.5949707488
 C         -1.7460249009       -2.1279164185        0.9835444286
 C         -0.5604077874       -2.1812864825        0.0510141331
 C         -0.4030123177       -3.1398973754       -0.9400315752
 C          0.7142026334       -3.1229036270       -1.7568967903
 C          1.6937094692       -2.1597127990       -1.6037498658
 C          1.5493171327       -1.1982523991       -0.6115107059
 C          0.4319638279       -1.2210430939        0.2097359907
 H          0.3149700432       -0.4712077247        0.9838006208
 N          2.5341965449       -0.2024809951       -0.4551089735
 S          4.1444211589       -0.7171579946       -0.4965358521
 O          4.5470130024       -0.8466009131       -1.8744255172
 O          4.3084936342       -1.8977761199        0.3220668402
 C          4.9766824667        0.6734493360        0.2437613810
 C          5.2494906531        1.7792642907       -0.5391227793
 C          5.8837119175        2.8676276207        0.0383952584
 C          6.2322942442        2.8325946982        1.3805571784
 C          5.9522069271        1.7155142994        2.1530932355
 C          5.3166127455        0.6239912896        1.5822843943
 H          5.0878090488       -0.2688195607        2.1421191761
 H          6.2265445772        1.6898816363        3.1954646613
 H          6.7282137104        3.6799956733        1.8270148008
 H          6.1054485076        3.7372224206       -0.5589512895
 H          4.9698718326        1.7574571150       -1.5794529366
 H          2.3642779839        0.3706040717        0.3603586003
 H          2.5685545253       -2.1406447974       -2.2335736977
 H          0.8224675840       -3.8697228920       -2.5292356165
 H         -1.1660241451       -3.8857869494       -1.0897934584
 H         -1.3555631886       -2.0518295665        2.0122042864
 C         -2.5996809812       -3.3865848071        0.9435970593
 C         -4.0282678703       -3.3597402161        1.3968686036
 C         -3.7045306127       -3.5863388615       -0.0478003494
 H         -3.8516788413       -4.5761713390       -0.4549408426
 H         -3.8963136602       -2.7927570366       -0.7519150037
 H         -4.3969471117       -4.1897655945        1.9806068941
 H         -4.4424014914       -2.4046127399        1.6862199229
 H         -2.0266058712       -4.2673748419        1.2177282006
