  62
        -98.94073305
 C         -2.5178822002       -0.2563965909       -0.4429838680
 C         -2.1667906462       -0.8826237775        0.7745169541
 C         -1.5411521704       -2.2158388961        0.6763739717
 C         -1.2760034969       -2.7200760415       -0.5408350061
 C         -0.5616390365       -3.9983185721       -0.8889473224
 C          0.9576077534       -3.7676747815       -0.9807966185
 C          1.7201973196       -4.0257220881        0.3164265225
 H          1.6589234471       -5.0882127864        0.5638372324
 H          2.7696309338       -3.7877344681        0.1276833658
 C          1.2409766578       -3.2042487575        1.5145698564
 H          1.0752048585       -2.1719439761        1.2014740093
 H          2.0427311968       -3.1962361039        2.2561475294
 C         -0.0318645772       -3.7621140999        2.1665590822
 H         -0.2278142659       -4.7647454387        1.7873777166
 H          0.1270582644       -3.8633693466        3.2428282993
 C         -1.2765072645       -2.8869814212        1.9980120177
 H         -2.1629580857       -3.4786398474        2.2565981132
 H         -1.2348877266       -2.0633199470        2.7183424283
 H          1.1271705714       -2.7351301356       -1.3022303907
 H          1.3656816132       -4.4234998267       -1.7532751317
 H         -0.7975504885       -4.7836759049       -0.1769415404
 H         -0.9321779728       -4.2959321711       -1.8722558407
 O         -1.5991865121       -2.0630999436       -1.6928111615
 C         -2.2178624711       -0.8301396564       -1.6763444904
 O         -2.4566918880       -0.3542643039       -2.8077490229
 H         -0.5407786738        1.2660648024       -1.0739144330
 C         -0.7744694877        1.9630768087       -0.2805911468
 C         -2.0837979923        2.0766209397        0.1688225800
 C         -2.3642024496        3.0033921659        1.1636091258
 C         -1.3453427987        3.7603630488        1.7181274677
 C         -0.0328270297        3.5912690186        1.3172390359
 C          0.2531684684        2.6800499555        0.3063739559
 N          1.5681276593        2.4566883046       -0.1391818787
 S          1.9490488407        0.8589442120       -0.5553988699
 O          1.6964640227        0.6802980183       -1.9650802829
 O          1.2934821824       -0.0618432266        0.3410635062
 C          3.7089908643        0.8476148671       -0.2658625036
 C          4.5352101323        1.4858607268       -1.1720433845
 C          5.9006080430        1.5027371420       -0.9359767572
 C          6.4141630861        0.8844239850        0.1947750875
 C          5.5728415177        0.2457039965        1.0930783000
 C          4.2056666300        0.2268731900        0.8641992326
 H          3.5116282910       -0.2615264901        1.5295231752
 H          5.9743024028       -0.2374552674        1.9691607793
 H          7.4773407642        0.8982361421        0.3753877687
 H          6.5580711534        1.9956643533       -1.6337031257
 H          4.0909849955        1.9420306070       -2.0414256743
 H          2.2652314065        2.8614743532        0.4713043648
 H          0.7632679786        4.1540674539        1.7804562345
 H         -1.5747905991        4.4737953289        2.4951378615
 H         -3.3754389743        3.1204544041        1.5173501828
 C         -3.1052864765        1.1456232192       -0.4405839222
 H         -3.2352334443        1.4209139841       -1.4980869619
 C         -4.4524796386        1.1788878400        0.2473102490
 C         -5.4644994384        2.2166851009       -0.1326022614
 C         -5.6719142008        0.7868750884       -0.5296937123
 H         -6.4400558080        0.2165459122       -0.0296066482
 H         -5.5319650502        0.5157442431       -1.5663110504
 H         -6.0960811424        2.6283427507        0.6399617740
 H         -5.1919657301        2.9209614324       -0.9041040205
 H         -4.3972255841        0.8674810867        1.2836915967
 O         -2.3707295935       -0.3570092996        1.9014267652
