  62
        -98.93842584
 C         -1.7839555395       -1.0772875938        0.2503206137
 C         -2.0292959760        0.2125861118       -0.2744321044
 C         -3.3312116101        0.8244527137        0.0560552277
 C         -4.2011717892        0.1645614391        0.8419931651
 C         -5.5595806295        0.5603410393        1.3817762448
 C         -6.3289131891        1.7353738120        0.7833366905
 C         -6.7990861051        1.5272302600       -0.6557417051
 H         -7.5767719042        0.7592986526       -0.6601993644
 H         -7.2502583340        2.4587248676       -1.0047996297
 C         -5.7197562635        1.0964167920       -1.6456728117
 H         -6.1896393742        0.9928996124       -2.6275326273
 H         -5.3384671308        0.1118858980       -1.3671079213
 C         -4.5445489379        2.0610252540       -1.7923381262
 H         -3.9440418133        1.7197999821       -2.6397519023
 H         -4.9165096323        3.0601880776       -2.0274305722
 C         -3.6101024192        2.1592670539       -0.5735587594
 H         -2.6465564084        2.5454846283       -0.9182345910
 H         -3.9943663013        2.8582302042        0.1655631926
 H         -7.2185035522        1.8718709702        1.4043854719
 H         -5.7469950182        2.6488134837        0.8646683078
 H         -5.4094408978        0.7540410115        2.4498566881
 H         -6.1774888820       -0.3409326886        1.3171930114
 O         -3.9099500431       -1.0678889558        1.3504583681
 C         -2.7252526290       -1.7162085755        1.0631048987
 O         -2.6260179163       -2.8469460587        1.5796314211
 O         -1.2121714624        0.8588759983       -0.9851312013
 C         -0.5161572710       -1.8739764440       -0.0179791865
 C          0.6300137991       -1.4223256675        0.8543528855
 C          1.2599038244       -2.3043030124        1.7240099879
 C          2.3349141851       -1.8917005491        2.4929301726
 C          2.8018593393       -0.5917311012        2.4123184246
 C          2.1726695624        0.2975019287        1.5516030743
 C          1.1020707324       -0.1198158832        0.7758845333
 H          0.6200221031        0.5769706616        0.1061045106
 N          2.6490999568        1.6253250239        1.4499845359
 S          4.1692606483        1.7669304533        0.7567071735
 O          5.1483978256        1.2340373635        1.6695589764
 O          4.3154347703        3.1605465183        0.4030239808
 C          4.0794880798        0.7546345962       -0.7084434598
 C          4.4285887302       -0.5786486041       -0.6317567814
 C          4.2709995799       -1.3757712539       -1.7538070846
 C          3.7682244334       -0.8292385607       -2.9243616597
 C          3.4194352813        0.5111115566       -2.9842947408
 C          3.5696472527        1.3117498600       -1.8638896025
 H          3.3124842603        2.3590945073       -1.8696982680
 H          3.0254558783        0.9324427537       -3.8953416323
 H          3.6502048450       -1.4504298379       -3.7986396958
 H          4.5363379444       -2.4196954679       -1.7098351302
 H          4.8195440142       -0.9636228054        0.2956245476
 H          2.0058381315        2.2234381865        0.9489783991
 H          3.6464159364       -0.2549937345        2.9916014825
 H          2.8136948615       -2.5891527215        3.1633238044
 H          0.8952081549       -3.3181175782        1.8023559067
 H         -0.7591828341       -2.9086476000        0.2578435508
 C         -0.0977333234       -1.8528312370       -1.4765662731
 C          0.7451730455       -2.9721816400       -2.0047155340
 C         -0.6889869337       -2.8515297698       -2.4229585806
 H         -0.9112371719       -2.5361214230       -3.4312266386
 H         -1.4002304724       -3.5593400785       -2.0218059977
 H          1.5122620952       -2.7388015745       -2.7258123892
 H          1.0072942382       -3.7657706282       -1.3217981352
 H          0.0898846382       -0.8573034117       -1.8560803369
