  62
        -98.94188817
 C         -1.1966877136       -1.5404559558        0.5082800601
 C         -2.1559894475       -1.1930002884       -0.4715249670
 C         -3.2033044580       -0.2474019666       -0.0498748459
 C         -3.1968735743        0.2333233691        1.2050236171
 C         -4.1790781820        1.1780329457        1.8509344986
 C         -4.6218817393        2.4022968452        1.0375275132
 C         -3.5642152059        2.9710245365        0.0796554780
 H         -3.4859494673        4.0486319310        0.2388394075
 H         -2.5807924552        2.5465101465        0.2954576641
 C         -3.9093433557        2.7416218749       -1.3940486035
 H         -3.3452823495        3.4566035482       -1.9980657946
 H         -4.9713686018        2.9516411659       -1.5418886788
 C         -3.5943769494        1.3476084425       -1.9342939520
 H         -3.9791646442        1.2870418452       -2.9553927824
 H         -2.5100928038        1.2134053273       -1.9915744349
 C         -4.1679193282        0.1766671582       -1.1190551529
 H         -5.1447938016        0.4218590306       -0.7093624620
 H         -4.2732175055       -0.6802350204       -1.7899504028
 H         -4.9084242716        3.1710840823        1.7572614721
 H         -5.5171352860        2.1565982246        0.4675064116
 H         -5.0635697906        0.6041599031        2.1429767473
 H         -3.6901256751        1.5092696701        2.7702676028
 O         -2.2529574242       -0.1308871201        2.1184480306
 C         -1.2172078937       -0.9863822599        1.7859450133
 O         -0.3894811460       -1.1746575127        2.7024698495
 H          0.4318306091        0.1636368624       -0.1661917555
 C          0.9513939171       -0.4139066117       -0.9143606001
 C          0.8020758378       -1.7928393538       -0.9392481376
 C          1.4568039780       -2.5088833848       -1.9339016905
 C          2.2241617235       -1.8488492754       -2.8786026508
 C          2.3746786522       -0.4738994427       -2.8437290656
 C          1.7275709596        0.2502139538       -1.8492179333
 N          1.8389677847        1.6462267195       -1.7649900022
 S          1.8630279802        2.3822730456       -0.2631589457
 O          0.5476921637        2.3780578708        0.3264575508
 O          2.4330400412        3.6879826052       -0.5200181725
 C          3.0111835912        1.4080511594        0.6940322125
 C          2.5759159633        0.5643581344        1.6947904248
 C          3.5077685360       -0.2136864054        2.3653940815
 C          4.8494636944       -0.1356955885        2.0285355761
 C          5.2731249693        0.7250188437        1.0266714010
 C          4.3471992913        1.5013580762        0.3509892398
 H          4.6371089570        2.1912999495       -0.4247462722
 H          6.3181163674        0.7896282044        0.7699876772
 H          5.5674848518       -0.7467219857        2.5523232924
 H          3.1670046034       -0.8785916646        3.1432705277
 H          1.5274115698        0.5123503490        1.9448112949
 H          2.4958345226        2.0659224212       -2.4057949408
 H          2.9745898267        0.0360953842       -3.5814745965
 H          2.7190731882       -2.4155441426       -3.6524887643
 H          1.3584569457       -3.5813684562       -1.9744794356
 C         -0.0320120907       -2.4403085207        0.1421616539
 H          0.5926265650       -2.5107440010        1.0459965976
 C         -0.5158816611       -3.8281116307       -0.2247391329
 C          0.3237281358       -5.0300008153        0.0851234573
 C         -0.9220599560       -4.7630814174        0.8734957517
 H         -1.7809422722       -5.3986559777        0.7191005185
 H         -0.8209788768       -4.4065139028        1.8886123810
 H          1.2730611758       -4.8667200230        0.5725341106
 H          0.3187557609       -5.8551964353       -0.6110172040
 H         -1.1083955948       -3.8337651354       -1.1319803173
 O         -2.1431450957       -1.6481016337       -1.6448660404
