  62
        -98.94341435
 C         -2.2850840028       -0.6446293644        0.0631689957
 C         -3.1518858845       -0.1705082763        1.0848037230
 C         -4.0512154502        0.9320089497        0.7253847262
 C         -4.0024370649        1.4360350036       -0.5207598365
 C         -4.8922130826        2.5255273126       -1.0432274078
 C         -6.1601349663        1.9475784474       -1.6873499426
 C         -6.8766286789        0.9123855428       -0.8202271119
 H         -7.7715618797        0.5982721937       -1.3617734469
 H         -6.2387189359        0.0316229505       -0.7164202361
 C         -7.2732756232        1.4172682906        0.5741617777
 H         -8.2982319132        1.1027538492        0.7816610598
 H         -7.2596583138        2.5076271543        0.5912420500
 C         -6.4038090565        0.8819131525        1.7134131920
 H         -6.3377847474       -0.2067357967        1.6432745245
 H         -6.8986182801        1.1191619927        2.6589310444
 C         -4.9798852646        1.4473165353        1.7886271944
 H         -5.0161012780        2.5384583717        1.7713873026
 H         -4.5469480793        1.1323409501        2.7424560137
 H         -6.8401342366        2.7717709392       -1.9102952344
 H         -5.8830319533        1.4710377636       -2.6305860322
 H         -5.1589684332        3.1916868806       -0.2250242336
 H         -4.3388484544        3.0909113044       -1.7949545186
 O         -3.1539173065        0.9687243736       -1.4688894665
 C         -2.2808189944       -0.0786542989       -1.2115035624
 O         -1.5779836162       -0.3829287907       -2.1977341928
 O         -3.1732985469       -0.6558299981        2.2469987884
 C         -1.3681955525       -1.7971673030        0.4385551896
 C          0.0314558419       -1.3218506441        0.7506574691
 C          0.5824305945       -1.5103676630        2.0127282729
 C          1.8714816156       -1.0891611530        2.2887576330
 C          2.6344149591       -0.4680103800        1.3163569720
 C          2.0930700210       -0.2740969753        0.0521847240
 C          0.8034751195       -0.7058256250       -0.2240205384
 H          0.3867819916       -0.5490918571       -1.2080737899
 N          2.8468899162        0.3796547757       -0.9380400544
 S          4.4070503231       -0.1602031690       -1.2406406461
 O          4.6929390613        0.2410857669       -2.6006363187
 O          4.5486260483       -1.5666339669       -0.9418573098
 C          5.4136904440        0.8025334937       -0.1309161281
 C          5.3382134525        2.1791141180       -0.2139832588
 C          6.1190171830        2.9447515533        0.6370142118
 C          6.9600478960        2.3245093110        1.5491428317
 C          7.0278670757        0.9413972299        1.6171124648
 C          6.2482390393        0.1696883993        0.7694267849
 H          6.2641024921       -0.9084247596        0.7894796017
 H          7.6830018354        0.4613106797        2.3261801432
 H          7.5664291284        2.9231201814        2.2104316259
 H          6.0691074058        4.0205769224        0.5866021036
 H          4.6754166953        2.6209367496       -0.9393798154
 H          2.3398207141        0.5108945253       -1.8017578426
 H          3.6374360654       -0.1343249083        1.5263400366
 H          2.2861339030       -1.2425875349        3.2733031644
 H         -0.0116000960       -1.9813041339        2.7822782193
 H         -1.7929696343       -2.2071823917        1.3647516719
 C         -1.3349686867       -2.9018208540       -0.6002929018
 C         -0.9304188156       -4.2821510750       -0.1815706224
 C         -2.3565337494       -3.9958739387       -0.5429346889
 H         -2.7450356295       -4.3863947535       -1.4715226446
 H         -3.0857446803       -3.9571108951        0.2532531834
 H         -0.3338980720       -4.8714037105       -0.8611196795
 H         -0.6937292249       -4.4396615339        0.8597400230
 H         -1.0259588988       -2.5630293966       -1.5807855871
