  62
        -98.94317146
 C          2.5085591448        0.9893779923       -0.1767782847
 C          3.6698961809        0.9091687051        0.6280576359
 C          4.7371588659        0.0319941174        0.1296476117
 C          4.5613924885       -0.6207134689       -1.0341300451
 C          5.5439344410       -1.5851334541       -1.6315328383
 C          5.2642336929       -3.0221079798       -1.1696263235
 C          5.0907638256       -3.1621410770        0.3427167185
 H          4.1848323653       -2.6333633670        0.6478108597
 H          4.9307088346       -4.2214310670        0.5549160823
 C          6.2789303500       -2.6493842235        1.1684423043
 H          6.5050028656       -3.3799533839        1.9480222969
 H          7.1630179148       -2.5680439732        0.5350863932
 C          6.0338618841       -1.3120220957        1.8697043781
 H          5.0980422184       -1.3594184207        2.4323785937
 H          6.8403454085       -1.1531149498        2.5905345497
 C          5.9862121748       -0.0791818998        0.9581981651
 H          6.8737023095       -0.0572772315        0.3225061134
 H          6.0004021643        0.8077599316        1.5985319025
 H          4.3476099407       -3.3684666490       -1.6525314254
 H          6.0860259185       -3.6579724039       -1.5039034423
 H          5.4536992408       -1.5382525092       -2.7180338613
 H          6.5524308992       -1.2907609351       -1.3475856877
 O          3.4361470281       -0.5094024845       -1.7850784837
 C          2.3788132408        0.2901083967       -1.3765761175
 O          1.4075406961        0.2956860832       -2.1558665360
 O          3.8055861144        1.5393616504        1.7115433649
 C          1.3627924708        1.8759007492        0.2768884593
 C          0.1098879116        1.0531454370        0.4463292829
 C          0.1486363675       -0.0572935221        1.2865009099
 C         -0.9714711940       -0.8428365933        1.4737373137
 C         -2.1581266875       -0.5411888192        0.8273291300
 C         -2.2122427845        0.5686480900       -0.0029259686
 C         -1.0843582423        1.3612715370       -0.1839004586
 H         -1.1447821256        2.2191785661       -0.8352147789
 N         -3.4072233038        0.8767143588       -0.6706051386
 S         -4.8542807046        0.8483522689        0.1722831435
 O         -5.7373898493        1.7225251150       -0.5685766367
 O         -4.6613692091        1.1663888152        1.5680890047
 C         -5.4244689856       -0.8296191317        0.0004393562
 C         -5.5053581421       -1.3646965160       -1.2702070397
 C         -5.9628850831       -2.6639086757       -1.4209630577
 C         -6.3329889774       -3.4008360024       -0.3056946206
 C         -6.2491293731       -2.8481674079        0.9629746951
 C         -5.7910663575       -1.5492991258        1.1206913357
 H         -5.7036750154       -1.0806640002        2.0880574441
 H         -6.5375747572       -3.4225816603        1.8286264804
 H         -6.6889671406       -4.4118167615       -0.4264194671
 H         -6.0287770163       -3.0972300267       -2.4060197155
 H         -5.2100968895       -0.7601690850       -2.1115635247
 H         -3.3472444459        1.6799647542       -1.2787235654
 H         -3.0349474727       -1.1525388896        0.9650030104
 H         -0.9223289679       -1.7017419042        2.1259392360
 H          1.0756387404       -0.2955053062        1.7904977385
 H          1.6591428896        2.2513648150        1.2676077749
 C          1.2068248837        3.0547698139       -0.6601597722
 C          0.5964226465        4.3322992863       -0.1682218936
 C          2.0664335230        4.2637694478       -0.4510812561
 H          2.4504840259        4.7796042189       -1.3183360177
 H          2.7499709460        4.2476063627        0.3850885208
 H         -0.0281718866        4.9005802064       -0.8413014239
 H          0.2787462283        4.3695047995        0.8630118094
 H          1.0125277049        2.7527892683       -1.6834638483
