  62
        -98.94213446
 C         -2.2585230070       -0.9130218782        0.6247114918
 C         -2.2706367846       -0.1097565697       -0.5415545588
 C         -2.8132104951        1.2445008200       -0.3746924979
 C         -3.2225423812        1.6582385311        0.8384163690
 C         -3.7722734103        3.0186201845        1.1723222294
 C         -5.2703078756        3.1781127133        0.8783330163
 C         -5.6371114644        3.2716296584       -0.6032101283
 H         -5.0283850965        4.0410934445       -1.0790903188
 H         -6.6770365826        3.5998489646       -0.6553534880
 C         -5.4971214189        1.9518705638       -1.3745956310
 H         -6.3838693330        1.7952530716       -1.9927075707
 H         -5.4478123600        1.1202931042       -0.6679873354
 C         -4.2825821741        1.8848795366       -2.3007108314
 H         -4.3837400778        2.6284558657       -3.0943441585
 H         -4.2590730348        0.8964038897       -2.7663574958
 C         -2.9384586881        2.1060645204       -1.5945688104
 H         -2.8183335354        3.1573671935       -1.3325029669
 H         -2.1355223634        1.8252224705       -2.2814843458
 H         -5.6016639166        4.0949459273        1.3711369286
 H         -5.8062261745        2.3427239845        1.3345310184
 H         -3.2098793629        3.7819648271        0.6334124037
 H         -3.6144804336        3.1625837926        2.2434665041
 O         -3.1573982378        0.8668458042        1.9427835450
 C         -2.6860771024       -0.4346169368        1.8621741329
 O         -2.6845619652       -1.0489958168        2.9488261706
 O         -1.8472804919       -0.4990982450       -1.6610919994
 C         -1.7249837118       -2.3325232849        0.5568833492
 C         -0.3059709640       -2.3243559338        0.0402388315
 C          0.1673619031       -3.2211594750       -0.9084276955
 C          1.4738109313       -3.1406414008       -1.3587188426
 C          2.3365784816       -2.1760621119       -0.8720517364
 C          1.8772990030       -1.2812213962        0.0848160411
 C          0.5707234782       -1.3692680659        0.5388439223
 H          0.2151169877       -0.6657252740        1.2833100516
 N          2.7482480228       -0.2982704184        0.6039720107
 S          3.3641677037        0.8764411865       -0.4400800303
 O          2.7377973058        2.1443038427       -0.1251991286
 O          3.2648407920        0.4256326516       -1.8051231263
 C          5.0797610438        0.9333120853        0.0444919178
 C          5.6474939296        2.1315094357        0.4292149360
 C          6.9856052134        2.1547703776        0.7919063780
 C          7.7285386441        0.9849188953        0.7652610325
 C          7.1431532959       -0.2119035782        0.3792666112
 C          5.8069377519       -0.2405503434        0.0146377278
 H          5.3161241669       -1.1508500384       -0.2872069962
 H          7.7224776707       -1.1209668722        0.3620224212
 H          8.7692707478        1.0050516315        1.0476929574
 H          7.4414686306        3.0841486409        1.0933621585
 H          5.0307726266        3.0156343079        0.4381180230
 H          2.3451012707        0.1811464416        1.3976653803
 H          3.3435379257       -2.0922772648       -1.2456921315
 H          1.8239217444       -3.8377081060       -2.1048711280
 H         -0.4910121515       -3.9753779544       -1.3072339179
 H         -1.7121654236       -2.7048344156        1.5919942821
 C         -2.6586167921       -3.1994783069       -0.2626648805
 C         -2.7955254445       -4.6611732213        0.0371850616
 C         -3.9093898305       -3.7187351391        0.3780948241
 H         -4.8145597576       -3.7518903504       -0.2094710861
 H         -4.0723424644       -3.4695659483        1.4168426570
 H         -2.9398301616       -5.3449334849       -0.7857098908
 H         -2.2072920080       -5.0626778698        0.8483323196
 H         -2.7214356735       -2.8777215422       -1.2960899647
