  62
        -98.93830211
 C          1.8681694413        0.7854657155       -0.2437385491
 C          2.4670637801        0.1684748029        0.8784190525
 C          3.5279689766       -0.8133168720        0.5987892670
 C          3.8455418088       -1.0933827094       -0.6770107719
 C          4.8557654944       -2.0859582584       -1.1964857466
 C          6.2117980225       -2.1595501145       -0.4815904699
 C          6.7205777165       -0.8255269860        0.0840093796
 H          7.7443168999       -0.6628731621       -0.2579801538
 H          6.1149450701       -0.0019667749       -0.2980370555
 C          6.7251025132       -0.7887612187        1.6141534634
 H          7.1091732456       -1.7411155788        1.9862805602
 H          7.4136889501       -0.0074075053        1.9445943325
 C          5.3727915279       -0.5053981584        2.2668163883
 H          5.4899216242       -0.6198473660        3.3471520407
 H          5.0842060517        0.5332228473        2.0840230887
 C          4.2126486527       -1.3997620263        1.7999954605
 H          3.4625039818       -1.4187166920        2.5955145579
 H          4.5481283307       -2.4176773193        1.6166896768
 H          6.1601808007       -2.8904759004        0.3242338901
 H          6.9294366661       -2.5447495370       -1.2079899305
 H          5.0084488111       -1.8122796429       -2.2433016765
 H          4.3929487936       -3.0774004243       -1.1889834428
 O          3.2200003753       -0.4959549649       -1.7308813401
 C          2.2249636805        0.4524285994       -1.5495570783
 O          1.7504967501        0.9080106910       -2.6064263848
 O          2.1184456122        0.4134956562        2.0652570815
 C          0.7740747306        1.8136557699       -0.0225339098
 C         -0.5190007736        1.3356594587       -0.6364092269
 C         -1.3349530526        2.1346741462       -1.4257133488
 C         -2.5063606644        1.6271707274       -1.9625863428
 C         -2.8939667973        0.3232853650       -1.7183412092
 C         -2.0953253541       -0.4784284608       -0.9114803909
 C         -0.9257205394        0.0329487121       -0.3719926814
 H         -0.3043223921       -0.5950710915        0.2545879783
 N         -2.4872915466       -1.7999508594       -0.6408898036
 S         -4.0903886793       -2.0818448687       -0.2537400607
 O         -4.0771893739       -3.2708241513        0.5695434007
 O         -4.8747055289       -2.1629534927       -1.4607732382
 C         -4.5999577265       -0.6635750443        0.7016029505
 C         -3.9178923484       -0.3866272156        1.8699768911
 C         -4.2790720559        0.7281258743        2.6086698660
 C         -5.3114201789        1.5428336721        2.1689179866
 C         -5.9902628843        1.2480258202        0.9970405049
 C         -5.6314821731        0.1355102944        0.2527310649
 H         -6.1298972107       -0.1288285780       -0.6656257225
 H         -6.7939583520        1.8818542039        0.6588153732
 H         -5.5874134676        2.4117673699        2.7451185466
 H         -3.7511072144        0.9582873783        3.5202461504
 H         -3.1220322632       -1.0411417419        2.1882942758
 H         -1.8636768253       -2.2973799228       -0.0230403062
 H         -3.7916839019       -0.0918011561       -2.1468086285
 H         -3.1239063361        2.2558324396       -2.5854704135
 H         -1.0491830114        3.1527245776       -1.6317495711
 H          0.6354059079        1.8598487738        1.0681311753
 C          1.2163926309        3.1754190078       -0.5146050131
 C          0.6807316462        4.4206623998        0.1246786315
 C          2.1010996043        4.0077154688        0.3630541369
 H          2.8922150784        4.5807391895       -0.0969444160
 H          2.3623738224        3.6030495387        1.3301402257
 H          0.4977425017        5.2826168130       -0.4989019881
 H         -0.0225867795        4.3036031069        0.9349556100
 H          1.4151593647        3.1880482877       -1.5803766493
