  62
        -98.93521252
 C          2.2402173269        0.9960305955       -0.3717589842
 C          3.0456777063        0.2713038690        0.5407501433
 C          3.3838482415       -1.1231206127        0.2021016831
 C          2.8975830462       -1.6411522038       -0.9406796354
 C          3.0613564838       -3.0366913706       -1.4841007744
 C          2.1895746694       -4.0651884710       -0.7492565415
 C          2.2370140772       -3.9709601500        0.7730718183
 H          1.5274030533       -4.7012154948        1.1710648450
 H          1.8860101147       -2.9832594936        1.0784227639
 C          3.6006303221       -4.2507458595        1.4014821009
 H          3.9430639454       -5.2391556341        1.0877636189
 H          3.4558695794       -4.2772027723        2.4843582452
 C          4.7020240029       -3.2311180480        1.0987748194
 H          5.1391884681       -3.3979816683        0.1178832850
 H          5.5023899684       -3.3915375750        1.8267528162
 C          4.2713548502       -1.7745898385        1.2356698394
 H          5.1688409580       -1.1464310202        1.2842429805
 H          3.7711627081       -1.6340260551        2.2006308500
 H          2.4955479504       -5.0640263898       -1.0661104253
 H          1.1524126263       -3.9122820333       -1.0594288353
 H          2.7496085111       -3.0012492693       -2.5305236469
 H          4.1068334787       -3.3297178129       -1.4584856001
 O          2.1196339997       -0.9113401015       -1.7893091338
 C          1.7639092083        0.4030825850       -1.5408762150
 O          1.0573703923        0.9029163784       -2.4393193703
 H         -0.5390414710        1.4384992305       -0.7046681478
 C         -0.5533384242        1.8992624336        0.2718956542
 C          0.6022110705        2.4591014779        0.7986707425
 C          0.5484439752        3.0470774960        2.0571946893
 C         -0.6326052210        3.0642583498        2.7772227204
 C         -1.7750857082        2.4804247501        2.2624283115
 C         -1.7327012449        1.8934691578        1.0020137917
 N         -2.8794710592        1.3027728902        0.4490105638
 S         -2.6887906989       -0.1105440960       -0.4602125011
 O         -1.6548287734       -0.9365144659        0.1221530136
 O         -2.5417952932        0.2458876415       -1.8479712707
 C         -4.2904093900       -0.8586477768       -0.2121612166
 C         -4.4510005847       -1.8074986651        0.7796603029
 C         -5.7085320777       -2.3517637390        0.9898800031
 C         -6.7791242154       -1.9372512698        0.2119747500
 C         -6.6025078092       -0.9846338955       -0.7806724657
 C         -5.3476514597       -0.4376958064       -0.9969165474
 H         -5.1581697990        0.2978794185       -1.7612541546
 H         -7.4360204862       -0.6667762826       -1.3858867565
 H         -7.7565822267       -2.3615897763        0.3783073207
 H         -5.8476983060       -3.0949967845        1.7582917485
 H         -3.5877540554       -2.1034836300        1.3540820917
 H         -3.6388311920        1.2208894760        1.1116337507
 H         -2.6941892205        2.4762120351        2.8284988062
 H         -0.6598475977        3.5218615900        3.7543892215
 H          1.4470302004        3.4738446313        2.4775334062
 C          1.8975723493        2.4220896642        0.0218288774
 H          2.7009783466        2.7345228188        0.7040487351
 C          1.8454825541        3.3992057584       -1.1351734915
 C          2.0655456013        4.8565598275       -0.8650070470
 C          3.1072803155        4.0633741422       -1.5941834978
 H          3.2429427047        4.2300994766       -2.6520452358
 H          4.0193622483        3.8155889446       -1.0708567552
 H          2.2747213586        5.1512842451        0.1520428005
 H          1.4829120990        5.5744980221       -1.4212368096
 H          1.1207868962        3.1287154915       -1.8921590198
 O          3.4825827369        0.7761984634        1.6117467148
