  62
        -98.93901847
 C         -1.9605983460       -0.8998034758       -0.4061305971
 C         -3.0306996936       -1.1729694111        0.4803298143
 C         -4.3247398208       -0.5381561907        0.1785513677
 C         -4.4250336703        0.2791497496       -0.8863306582
 C         -5.6076712071        1.0343544506       -1.4561400337
 C         -6.8881365769        1.2095364782       -0.6439589427
 C         -6.7466084137        2.1018088954        0.5888061997
 H         -6.5875611360        3.1308100431        0.2563337341
 H         -7.6885134125        2.0730808498        1.1409750124
 C         -5.6043087167        1.7429677284        1.5360565024
 H         -5.6179071343        2.4595492404        2.3618784888
 H         -4.6484583232        1.8653744608        1.0221242037
 C         -5.6692669178        0.3403834138        2.1372500937
 H         -6.6353344235        0.1935667880        2.6240616798
 H         -4.8941297102        0.2763963684        2.9055788154
 C         -5.4368159828       -0.8153869646        1.1487894404
 H         -5.1298263446       -1.6936647987        1.7239990771
 H         -6.3513154078       -1.0744670236        0.6207323274
 H         -7.6162000324        1.6810908037       -1.3097210835
 H         -7.2954426613        0.2410950556       -0.3689902416
 H         -5.2233262157        2.0206474779       -1.7354970875
 H         -5.8597802133        0.5264553051       -2.3937303912
 O         -3.3619470284        0.5210674110       -1.7072278184
 C         -2.1146996978       -0.0444666348       -1.4951827942
 O         -1.2607669267        0.2889165641       -2.3391778080
 O         -2.9137549055       -1.9279718387        1.4818454742
 C         -0.6108475907       -1.5329339696       -0.1119782066
 C          0.3343865044       -0.4563734723        0.3596522666
 C          0.3258006264       -0.0743298149        1.6979961274
 C          1.1637544206        0.9267099034        2.1536261845
 C          2.0271170772        1.5690931879        1.2833970268
 C          2.0356992334        1.2004207907       -0.0549830087
 C          1.2026690762        0.1871408123       -0.5089322357
 H          1.2086992432       -0.0779320606       -1.5542585102
 N          2.9233396084        1.8431134248       -0.9407353560
 S          4.5423504404        1.7874498988       -0.5129991872
 O          4.8134713956        2.8011788247        0.4754291152
 O          5.2780461937        1.8998347942       -1.7526857271
 C          4.7505174474        0.1676080302        0.2055899344
 C          4.9535061597        0.0371756967        1.5640295388
 C          5.0354751763       -1.2340347535        2.1096500958
 C          4.9083311086       -2.3460244110        1.2921736198
 C          4.7074775450       -2.1983079315       -0.0717997718
 C          4.6241229880       -0.9302520549       -0.6224560843
 H          4.4730444471       -0.7784178296       -1.6792328166
 H          4.6096678714       -3.0655029214       -0.7049594191
 H          4.9661260654       -3.3349113965        1.7190270695
 H          5.1927274551       -1.3524263593        3.1695962258
 H          5.0446530189        0.9281050437        2.1632604761
 H          2.7965190604        1.5625821213       -1.9025035754
 H          2.6904368357        2.3510582815        1.6164607232
 H          1.1462618830        1.2102079766        3.1949210731
 H         -0.3550264215       -0.5692288001        2.3761716648
 H         -0.7912811842       -2.2160955749        0.7286345054
 C         -0.0758343296       -2.3298017233       -1.2841246715
 C          1.1202780336       -3.2099947646       -1.0796845373
 C         -0.2317552296       -3.8195370720       -1.2935489375
 H         -0.4352627321       -4.3091771189       -2.2342015063
 H         -0.7272211712       -4.2755446648       -0.4491765083
 H          1.8467005299       -3.2825471408       -1.8744589343
 H          1.5454052447       -3.2462090713       -0.0881659610
 H         -0.1714995526       -1.8170615219       -2.2333981195
