  62
        -98.93471592
 C         -1.8083385021       -1.6749732190        0.3165613771
 C         -1.5810354087       -0.4866948358       -0.4181861057
 C         -2.6220870339        0.5608205671       -0.3233879088
 C         -3.7124054029        0.3434602517        0.4316441512
 C         -4.8911357442        1.2494738942        0.6831295152
 C         -5.4747373300        1.9827265877       -0.5344540008
 C         -5.1977149124        3.4872111831       -0.5289589718
 H         -5.3031457559        3.8558775992        0.4935324334
 H         -5.9593513553        3.9845246347       -1.1337610760
 C         -3.8323520652        3.8993394710       -1.0765177499
 H         -3.7095943165        4.9682225613       -0.8865745767
 H         -3.8203288677        3.7597846471       -2.1597802314
 C         -2.6354759570        3.1551730097       -0.4808396006
 H         -2.7638383144        3.0281479879        0.5938032179
 H         -1.7523924048        3.7809879258       -0.6290077662
 C         -2.3651432737        1.7960421201       -1.1444273901
 H         -1.3104197591        1.7281604978       -1.4293238688
 H         -2.9301605915        1.7201492088       -2.0781525761
 H         -6.5566412177        1.8406318845       -0.5203637565
 H         -5.1041152370        1.5317501443       -1.4537408094
 H         -4.6130236788        1.9737097179        1.4529156100
 H         -5.6529179849        0.6038022011        1.1262245083
 O         -3.8799928576       -0.8092778360        1.1405945687
 C         -2.9483819100       -1.8270402430        1.1131727845
 O         -3.2422782835       -2.8052005809        1.8281366458
 O         -0.5692368298       -0.2800241412       -1.1375952607
 C         -0.8285242696       -2.8388536172        0.3467773954
 C          0.5536306683       -2.3305464814        0.6666339883
 C          0.9241676077       -2.1102324998        1.9892720950
 C          2.1667622544       -1.5854139776        2.2957628503
 C          3.0481831291       -1.2340397616        1.2882009145
 C          2.6725347779       -1.4250157744       -0.0352155811
 C          1.4480008038       -2.0042664092       -0.3394154706
 H          1.1686246922       -2.1512013803       -1.3706153909
 N          3.5223069402       -1.0018802789       -1.0700150683
 S          4.3427906430        0.4407767546       -0.8759714523
 O          4.5069256756        0.9685587098       -2.2137390472
 O          5.5712048993        0.1930969020       -0.1581304049
 C          3.3193792337        1.5372370956        0.0994621799
 C          1.9550984501        1.5989823400       -0.1034042041
 C          1.2077943557        2.4761010131        0.6676358241
 C          1.8273559591        3.2831588073        1.6082117153
 C          3.1995906011        3.2161574977        1.7921628577
 C          3.9517847780        2.3333328092        1.0349060898
 H          5.0185993091        2.2362287164        1.1566649685
 H          3.6834171107        3.8425135784        2.5242860965
 H          1.2363100312        3.9630682731        2.2014282021
 H          0.1386777639        2.5110971096        0.5301092085
 H          1.4664412146        0.9610292645       -0.8234142321
 H          3.0974986885       -1.0545154106       -1.9845995688
 H          4.0148010252       -0.8088312889        1.5072310299
 H          2.4477878011       -1.4341170389        3.3267419973
 H          0.2228133706       -2.3505027294        2.7762584590
 H         -1.1645189565       -3.4650467995        1.1877754127
 C         -0.8538675531       -3.7256284014       -0.8903577420
 C         -2.1624005225       -4.1369444199       -1.4952390132
 C         -1.2364885775       -3.2359941920       -2.2530708713
 H         -0.7108087888       -3.6435151922       -3.1047229341
 H         -1.5063402860       -2.1982255542       -2.3656233977
 H         -2.2816915504       -5.1567613771       -1.8284816422
 H         -3.0587026514       -3.7077747355       -1.0706679399
 H         -0.0802815343       -4.4868379631       -0.8502098785
