  62
        -98.94679361
 C         -1.2275855925       -1.2138630457        0.0834541856
 C         -1.9108274933       -0.6087672791        1.1644176355
 C         -2.6195298818        0.6407248608        0.8587554814
 C         -2.5466366794        1.1491016842       -0.3851554655
 C         -3.2782304066        2.3741987645       -0.8505166025
 C         -4.6527166558        2.0102793626       -1.4299738002
 C         -5.4806127083        1.0933774380       -0.5296504147
 H         -6.4406466735        0.9315754235       -1.0245662317
 H         -4.9878245088        0.1209900033       -0.4596789315
 C         -5.7211514890        1.6409271937        0.8841663359
 H         -6.7707989163        1.4896440618        1.1449359481
 H         -5.5356370867        2.7155093346        0.9027977679
 C         -4.8901418933        0.9642042296        1.9759282141
 H         -5.0052871356       -0.1203915895        1.9043672241
 H         -5.2888282279        1.2713701883        2.9465945840
 C         -3.3912227995        1.2907205964        1.9726117848
 H         -3.2512419658        2.3735588273        1.9607527231
 H         -2.9653469983        0.9001089480        2.9016813377
 H         -5.2043456711        2.9335464029       -1.6163851758
 H         -4.5027981324        1.5046717304       -2.3865317486
 H         -3.3972981181        3.0615157776       -0.0152662503
 H         -2.6866796192        2.8588113795       -1.6281325867
 O         -1.8333214280        0.5694723516       -1.3817224262
 C         -1.1507601220       -0.6201223817       -1.1774469450
 O         -0.5304049308       -1.0329643329       -2.1727217677
 H          0.9565531343       -0.7689532170        1.6662693055
 C          1.5718692074       -1.2918170916        0.9442408058
 C          0.9909046695       -2.2748906111        0.1510254694
 C          1.7891596319       -2.9393889280       -0.7690185279
 C          3.1290230937       -2.6127057448       -0.8989321837
 C          3.7009871740       -1.6284210444       -0.1141622919
 C          2.9117642649       -0.9666348956        0.8180844627
 N          3.4816943245        0.0508027161        1.6173958188
 S          4.0027587666        1.4045627086        0.7774364983
 O          5.1765193884        1.0579836059        0.0181606223
 O          4.1682051122        2.4383350180        1.7739690901
 C          2.6590623634        1.8122032454       -0.3215545632
 C          2.6440203724        1.2863582034       -1.5975109937
 C          1.5726546778        1.5739517795       -2.4270476875
 C          0.5409959591        2.3771724603       -1.9683030586
 C          0.5646060239        2.8885069049       -0.6799215091
 C          1.6307964429        2.5999347605        0.1558541620
 H          1.6900171616        2.9859635914        1.1613123643
 H         -0.2453911251        3.5048420509       -0.3230119491
 H         -0.2902941228        2.5948478282       -2.6199046937
 H          1.5370853531        1.1616156803       -3.4221584345
 H          3.4675847332        0.6710431677       -1.9206268973
 H          2.8698948950        0.3457436136        2.3661520933
 H          4.7374364873       -1.3500591599       -0.2161360254
 H          3.7359528932       -3.1315016168       -1.6253089889
 H          1.3613726061       -3.7043448409       -1.3953395282
 C         -0.4872790870       -2.5191276864        0.3220091943
 H         -0.6712381227       -2.7711485319        1.3766510580
 C         -1.0360330999       -3.6286881257       -0.5477468459
 C         -0.8545692334       -5.0581714228       -0.1357558826
 C         -2.2090590283       -4.4220483172       -0.0584350905
 H         -2.9627607832       -4.7217366876       -0.7710876042
 H         -2.6048504123       -4.1766555119        0.9164735731
 H         -0.3304081783       -5.2485419334        0.7885759408
 H         -0.6795585423       -5.7984452185       -0.9015253214
 H         -1.0008295915       -3.3911345510       -1.6044985444
 O         -1.9230985619       -1.0884965673        2.3315069662
