  62
        -98.94150306
 C         -1.5516631399       -0.6547977312        0.9614013395
 C         -2.7917803096       -1.1081084017        0.4492928892
 C         -3.8468389199       -0.0900135022        0.3430203786
 C         -3.6005939405        1.1803612080        0.7081961284
 C         -4.5805889710        2.3215599876        0.6698892679
 C         -4.7029546008        2.9957161973       -0.7035875823
 C         -5.4407106301        2.1801701268       -1.7662233524
 H         -6.4021263801        1.8527111165       -1.3692354927
 H         -5.6458701200        2.8530890466       -2.6012609626
 C         -4.6581237294        0.9680890570       -2.2907793219
 H         -4.7193944790        0.9389513168       -3.3810404619
 H         -3.6018230395        1.0758756475       -2.0332381216
 C         -5.1571105391       -0.3809048131       -1.7732556318
 H         -6.1698795089       -0.5627970335       -2.1399849821
 H         -4.5075311486       -1.1630062529       -2.1743306414
 C         -5.1614493796       -0.5074394828       -0.2444538918
 H         -5.3214436993       -1.5576808328        0.0113988483
 H         -5.9728510399        0.0833318770        0.1800638278
 H         -5.2424978112        3.9344691971       -0.5582498427
 H         -3.7008614607        3.2401083476       -1.0632506920
 H         -5.5616615610        1.9730181473        0.9939087776
 H         -4.2211591615        3.0632890579        1.3862968678
 O         -2.3925568309        1.5790246586        1.1879462888
 C         -1.3433215006        0.6841385990        1.3086696593
 O         -0.2893697009        1.1906468995        1.7416431296
 O         -3.0340825690       -2.2929314019        0.0998154093
 C         -0.3429395896       -1.5632540907        1.1256893101
 C          0.3449012109       -1.7285642407       -0.2081963696
 C         -0.1522083884       -2.5702663410       -1.1974364796
 C          0.5013452520       -2.6780270610       -2.4113861694
 C          1.6627881118       -1.9664010906       -2.6563229391
 C          2.1610565712       -1.1137784102       -1.6778459891
 C          1.4938782007       -0.9947288603       -0.4674526294
 H          1.8714956202       -0.3197859300        0.2852536606
 N          3.3187313110       -0.3580620998       -1.9048579088
 S          4.3903056304       -0.0380002592       -0.6615584585
 O          5.6308808805        0.2812724112       -1.3361027781
 O          4.4474259805       -1.1278092890        0.2847129717
 C          3.7587027096        1.4342498907        0.1118861810
 C          3.5145624294        2.5355886105       -0.6838669293
 C          3.0379402088        3.6940410104       -0.0929225797
 C          2.8161407583        3.7316564506        1.2753197302
 C          3.0699394684        2.6188377008        2.0607948705
 C          3.5476216891        1.4577094009        1.4754804109
 H          3.7506539192        0.5673205011        2.0501523311
 H          2.8890388180        2.6472456010        3.1231636504
 H          2.4391138178        4.6322882105        1.7337016499
 H          2.8368193786        4.5626722002       -0.6993697700
 H          3.7006184798        2.4683798903       -1.7429833092
 H          3.7897861013       -0.5435231398       -2.7779986286
 H          2.1780872822       -2.0633209206       -3.6000244389
 H          0.1073293626       -3.3322460613       -3.1745882494
 H         -1.0636670783       -3.1174436514       -1.0155726799
 H          0.3483777899       -1.0202827003        1.7846135102
 C         -0.6657213794       -2.8955493507        1.7710096202
 C          0.4634776008       -3.7225000001        2.3056493408
 C         -0.4887463398       -3.0530632103        3.2497147103
 H         -1.1946708398       -3.6653592905        3.7905857002
 H         -0.1368824903       -2.1968903801        3.8071353003
 H          0.4128858212       -4.7952360502        2.1986434110
 H          1.4622874107       -3.3200695998        2.2171632811
 H         -1.4985137190       -3.4125062511        1.3141522700
