  62
        -98.94673173
 C         -1.7757630000       -1.3182840553       -0.0563889399
 C         -2.5976124759       -0.6526634285        0.8828348943
 C         -3.0903705788        0.6678284876        0.4765139135
 C         -2.7532837846        1.1649434606       -0.7279749613
 C         -3.2062368580        2.4827407785       -1.2959334502
 C         -2.3637135958        3.6828433201       -0.8434726418
 C         -2.5632542116        4.1101687356        0.6107771000
 H         -2.0820769982        5.0828172126        0.7294685777
 H         -3.6266044544        4.2479462738        0.8091696758
 C         -1.9678627512        3.1374278818        1.6383113699
 H         -1.2571561362        2.4729277045        1.1399534796
 H         -1.4076114021        3.6973546408        2.3906434149
 C         -3.0042418411        2.2926382541        2.3800833154
 H         -3.6386445335        2.9416709525        2.9878762429
 H         -2.4769198241        1.6130708534        3.0550830558
 C         -3.9022437927        1.4495960573        1.4647869234
 H         -4.4501233977        0.7360038571        2.0852821224
 H         -4.6200268310        2.0880543496        0.9504289953
 H         -2.6257710775        4.5258621388       -1.4865184529
 H         -1.3110305452        3.4466147183       -1.0070271865
 H         -4.2524093567        2.6509150500       -1.0383542486
 H         -3.1260826798        2.3959757777       -2.3813952344
 O         -1.9584790714        0.4934217825       -1.6020775578
 C         -1.4353488072       -0.7523278473       -1.2856020705
 O         -0.7035031424       -1.2409533978       -2.1647781340
 O         -2.9008960087       -1.1371754807        2.0072645600
 C         -1.2008206050       -2.6767615673        0.3000748235
 C          0.3063127765       -2.6054198187        0.3028370741
 C          1.1197948002       -3.5414329205       -0.3208855597
 C          2.4975120468       -3.3995150916       -0.2998448856
 C          3.0932779981       -2.3315835436        0.3448814748
 C          2.2881218416       -1.3916435560        0.9777809114
 C          0.9100787000       -1.5382597116        0.9585558731
 H          0.2858985604       -0.8048465380        1.4548828897
 N          2.8824995206       -0.2976583534        1.6422646778
 S          3.7834317374        0.7873743527        0.7417508377
 O          4.8554615947        0.0769238786        0.0933620738
 O          4.1707389521        1.8248339058        1.6699693133
 C          2.6751364774        1.4654776770       -0.4816423803
 C          2.2488429733        0.6642511909       -1.5225158901
 C          1.3739325283        1.1917828065       -2.4590361798
 C          0.9523909773        2.5073529133       -2.3456591957
 C          1.3932401510        3.3012594912       -1.2969586276
 C          2.2552675813        2.7744164811       -0.3490990902
 H          2.6193355428        3.3533231570        0.4844439277
 H          1.0688684889        4.3267595606       -1.2144805555
 H          0.2742402822        2.9122095304       -3.0808433595
 H          1.0103174343        0.5630607937       -3.2556965834
 H          2.5949579965       -0.3541424578       -1.5931525852
 H          2.2321482885        0.2166467789        2.2198983737
 H          4.1625917471       -2.1975916742        0.3505384122
 H          3.1170492177       -4.1321920453       -0.7944659094
 H          0.6765781984       -4.3799846012       -0.8320504728
 H         -1.5366244842       -2.8768444314        1.3287505171
 C         -1.7585430755       -3.7497354546       -0.6106505990
 C         -1.8906948022       -5.1608408909       -0.1232584101
 C         -3.1135512263       -4.3163073923       -0.3142858929
 H         -3.7721373476       -4.5379576009       -1.1405730043
 H         -3.6245624250       -3.9470170391        0.5630139368
 H         -1.7123652167       -5.9664443148       -0.8194707638
 H         -1.5747922065       -5.3731085837        0.8869969309
 H         -1.5016753994       -3.5873583304       -1.6512926240
