  62
        -98.94088774
 C         -2.2769085595       -0.5436954005        0.1192493495
 C         -3.5571738995       -1.0636348310        0.4270065388
 C         -4.6247634596       -0.0731025114        0.6160273102
 C         -4.3306397996        1.2363357488        0.5175586620
 C         -5.3315001397        2.3492355986        0.6286055436
 C         -5.9068689898        2.7160284605       -0.7466613058
 C         -6.3916886897        1.5120953716       -1.5545679275
 H         -6.8034161797        1.8940987429       -2.4912720170
 H         -5.5332929297        0.8874970420       -1.8126895384
 C         -7.4476286196        0.6539053805       -0.8438954087
 H         -8.2435214496        0.4196850215       -1.5539080891
 H         -7.8974278396        1.2208617193       -0.0281383679
 C         -6.9243790395       -0.6792060402       -0.3061259906
 H         -7.7838991095       -1.2924728907       -0.0229582215
 H         -6.3906068595       -1.2096328191       -1.0987027714
 C         -6.0037234895       -0.5894621219        0.9174759895
 H         -6.4800831695        0.0128446470        1.6934599303
 H         -5.8653810595       -1.6032620124        1.3043052380
 H         -5.1292141698        3.2237096313       -1.3221493651
 H         -6.7323838198        3.4149398302       -0.6001823748
 H         -6.1322965697        2.0456254976        1.2999591532
 H         -4.8288988398        3.2227604980        1.0471285449
 O         -3.0812198497        1.6992132892        0.2538800427
 C         -2.0254033396        0.8254062796        0.0361324914
 O         -0.9399560797        1.3850646900       -0.2128903878
 H          1.5386882705       -0.9556511293       -0.6101656012
 C          1.2868542405       -0.9772156508        0.4358504588
 C         -0.0105949295       -1.2399039314        0.8450229885
 C         -0.2914650495       -1.2584914634        2.2094196484
 C          0.6982547705       -1.0018603746        3.1370713288
 C          1.9873421105       -0.7144325840        2.7232421792
 C          2.2816028305       -0.7033907020        1.3654929292
 N          3.5998449705       -0.4620386313        0.9303830795
 S          3.8827963404        0.5573135506       -0.3870420291
 O          3.3788507503        1.8857073102       -0.1153482672
 O          3.4181711304       -0.0798851977       -1.5919627399
 C          5.6671436504        0.5699258607       -0.3715675191
 C          6.3368955704       -0.5318135586       -0.8691979306
 C          7.7222423904       -0.5423106885       -0.8422145207
 C          8.4115817904        0.5425753108       -0.3206583291
 C          7.7260843903        1.6417338600        0.1737507324
 C          6.3401153403        1.6578811500        0.1505469625
 H          5.7648852403        2.4937348994        0.5154877537
 H          8.2641872203        2.4850690695        0.5757159436
 H          9.4899134204        0.5324157008       -0.3017378692
 H          8.2589494105       -1.3942452080       -1.2274408519
 H          5.7591300505       -1.3471692881       -1.2718652018
 H          4.1968830505       -0.1774134824        1.6969353899
 H          2.7596621805       -0.5021639249        3.4473720395
 H          0.4647896006       -1.0163044561        4.1912084888
 H         -1.3028216594       -1.4700227539        2.5299002481
 C         -1.1331536195       -1.5117229701       -0.1247375919
 H         -1.5433416194       -2.5087411905        0.0958026367
 C         -0.7087882595       -1.4726002080       -1.5772012419
 C         -0.0698537094       -2.6736232171       -2.2054296736
 C         -1.4680095095       -2.2863356666       -2.5802626330
 H         -1.6441397595       -1.8646759353       -3.5585593524
 H         -2.2832906894       -2.8914187172       -2.2110578039
 H          0.0648021806       -3.5468422980       -1.5852326648
 H          0.7205898505       -2.5158248060       -2.9236491334
 H         -0.3644296096       -0.4912643576       -1.8875047905
 O         -3.7938337094       -2.2963099612        0.5409305370
