  62
        -98.94360035
 C         -1.3632903499       -1.3743500903        0.2918427500
 C         -1.8945878207       -0.4767072104        1.2525554398
 C         -3.1453067411        0.1966307387        0.8884931493
 C         -3.6925189807       -0.0247575119       -0.3202869708
 C         -4.9886874109        0.5482876372       -0.8260708512
 C         -4.8602339917        1.9537573271       -1.4280946714
 C         -4.6299919126        3.0746343875       -0.4139794416
 H         -4.7773234131        4.0194375373       -0.9409177818
 H         -5.3866163328        3.0166280971        0.3693242083
 C         -3.2312914028        3.0777474285        0.2188576788
 H         -2.5496270623        2.4734528188       -0.3855356110
 H         -2.8296532834        4.0939271588        0.2151473387
 C         -3.1850077928        2.5803916588        1.6637286889
 H         -2.1410514329        2.5882784996        1.9882725491
 H         -3.7424939234        3.2670473586        2.3051003786
 C         -3.7388595819        1.1640010085        1.8675460490
 H         -4.8256569719        1.1712050278        1.7836786688
 H         -3.4661491420        0.8317000989        2.8723155691
 H         -4.0453338715        1.9498392675       -2.1560014812
 H         -5.7871648417        2.1640433964       -1.9667907017
 H         -5.3431731303       -0.1287614832       -1.6064040511
 H         -5.7214682211        0.5630492569       -0.0186180713
 O         -3.1169475599       -0.8398218717       -1.2420026705
 C         -1.9267247295       -1.5083755909       -0.9778054301
 O         -1.5007759889       -2.1720132808       -1.9410318198
 O         -1.3494365711       -0.2549422499        2.3671150698
 C         -0.0730202695       -2.0933644294        0.6393807305
 C          0.9544344606       -1.8672860289       -0.4406066293
 C          1.6564483914       -2.8796071786       -1.0806091590
 C          2.6008603314       -2.5707922781       -2.0447141288
 C          2.8870249406       -1.2571439780       -2.3682735190
 C          2.1875948398       -0.2366537184       -1.7339502093
 C          1.2262689498       -0.5504975688       -0.7886515495
 H          0.6633658992        0.2474081909       -0.3275418398
 N          2.4491627090        1.1142946818       -2.0137954595
 S          2.4109625580        2.2073552320       -0.7475643098
 O          1.0502954977        2.5519977512       -0.4203882401
 O          3.2463942174        3.3028597024       -1.1927800498
 C          3.1989918682        1.3540876128        0.6077173106
 C          4.5399679385        1.0499014536        0.4713253910
 C          5.1742552487        0.3388261642        1.4761177412
 C          4.4586576387       -0.0595368261        2.5952263212
 C          3.1160825885        0.2600509331        2.7215242208
 C          2.4764715282        0.9738508225        1.7197813405
 H          1.4304023380        1.2295478718        1.7895749402
 H          2.5546190184       -0.0472316771        3.5896352407
 H          4.9488881389       -0.6207004756        3.3749230614
 H          6.2197055489        0.0934033549        1.3825074315
 H          5.0648008685        1.3844849238       -0.4086880390
 H          3.2305027590        1.2779856222       -2.6313749594
 H          3.6317781306       -1.0202192377       -3.1124589189
 H          3.1303843420       -3.3669056579       -2.5455528785
 H          1.4489469520       -3.9098804187       -0.8435887488
 H          0.2863079899       -1.5708670590        1.5430312005
 C         -0.2420213487       -3.5534608294        1.0302725407
 C         -1.5459736785       -4.0662430401        1.5627236005
 C         -1.0541303979       -4.5190425701        0.2222387907
 H         -0.6953072872       -5.5335460599        0.1267144510
 H         -1.5434991179       -4.1430869806       -0.6618935195
 H         -1.5259081582       -4.7662185600        2.3845918707
 H         -2.3788783389       -3.3783745907        1.5942411102
 H          0.6526980415       -3.9495273587        1.5006623510
