  62
        -98.94429782
 C          2.1027749952        1.3901623601        0.0084132851
 C          2.4161302649        0.4263463022       -0.9803332472
 C          3.7617688711       -0.1629602268       -0.9012398932
 C          4.6083206973        0.2341446240        0.0651109204
 C          5.9799603798       -0.3293303085        0.2941587847
 C          5.9389069589       -1.5046115034        1.2809397216
 C          4.8737079851       -2.5509758336        0.9525492837
 H          4.9590511730       -3.3463197304        1.6962552514
 H          3.8839539732       -2.1043214083        1.0745381134
 C          4.9876792437       -3.1534685308       -0.4548091765
 H          5.9850343074       -2.9706631417       -0.8565053830
 H          4.8605121199       -4.2357819254       -0.3832223287
 C          3.9406079643       -2.6475575241       -1.4488698823
 H          2.9437411310       -2.7449978726       -1.0106121296
 H          3.9731762098       -3.2906779343       -2.3325545941
 C          4.1195253267       -1.2011659637       -1.9276116999
 H          5.1410135804       -1.0554697922       -2.2841963082
 H          3.4367047037       -1.0426387015       -2.7673727005
 H          6.9226855152       -1.9771620918        1.2963048874
 H          5.7348859646       -1.1116005799        2.2796434467
 H          6.3984023786       -0.6537967787       -0.6565601424
 H          6.6106841431        0.4590658874        0.7083579041
 O          4.2827131037        1.1758662253        0.9854887580
 C          3.0308651441        1.7636877039        0.9873039387
 O          2.8649054655        2.6035739667        1.8940253129
 H         -0.2877339962       -0.2101450302       -0.8817278750
 C         -0.7144813090        0.0475048334        0.0760930993
 C         -0.2809588877        1.1941113778        0.7267177196
 C         -0.8275161371        1.5014782858        1.9672543849
 C         -1.7760598297        0.6752230834        2.5449835748
 C         -2.2001049766       -0.4710614334        1.8974475254
 C         -1.6597189243       -0.7856951051        0.6567786574
 N         -2.0865821051       -1.9449822483       -0.0130663870
 S         -3.7333345065       -2.2291972917       -0.0870627261
 O         -4.1704006271       -2.8591310257        1.1346032489
 O         -3.9382656814       -2.9948460773       -1.2966673409
 C         -4.4804334499       -0.6145259748       -0.2295684584
 C         -4.1105095596        0.1843456312       -1.2935082514
 C         -4.6558907289        1.4531250376       -1.3992056603
 C         -5.5571393364        1.8997528514       -0.4448455802
 C         -5.9228574565        1.0834734466        0.6138254930
 C         -5.3785654808       -0.1859772628        0.7262519868
 H         -5.6305441063       -0.8517721404        1.5355828689
 H         -6.6254965914        1.4322832101        1.3533229070
 H         -5.9760656236        2.8900526811       -0.5286015591
 H         -4.3725751946        2.0892505790       -2.2222801735
 H         -3.4092494539       -0.1910893242       -2.0215932868
 H         -1.6444061839       -2.0792076267       -0.9106358915
 H         -2.9297296960       -1.1322025970        2.3366151988
 H         -2.1880692363        0.9247819686        3.5107584986
 H         -0.4909558500        2.3876023067        2.4854928905
 C          0.7554454003        2.0928875663        0.0949103815
 H          0.9127885548        2.9449401987        0.7690688869
 C          0.2781854446        2.6251390932       -1.2430659182
 C         -0.7459659790        3.7178383561       -1.2651717352
 C          0.6702690722        4.0092751659       -1.6598231564
 H          0.8922230768        4.1900277405       -2.7009569648
 H          1.2841140132        4.5811754678       -0.9789043981
 H         -1.4993701708        3.7010891690       -2.0372903986
 H         -1.0953912145        4.0950655106       -0.3162010131
 H          0.2300216120        1.8707575080       -2.0166617174
 O          1.6315749900        0.0563810981       -1.8956596153
