  62
        -98.93924300
 C         -2.6458372181       -1.2683967009        0.3872280009
 C         -2.9466191525       -0.1379981033        1.1900346794
 C         -4.0841457606        0.6814503083        0.7625047272
 C         -4.7830521826        0.3276125931       -0.3312860910
 C         -5.9901906637        1.0381487956       -0.8807486511
 C         -5.6549046262        2.2298127405       -1.7878125299
 C         -5.1144091984        3.4645464656       -1.0655922879
 H         -5.1283105265        4.2874496677       -1.7829380047
 H         -5.7875489947        3.7317991793       -0.2504271445
 C         -3.6861200698        3.3070075290       -0.5250331083
 H         -3.2027210611        2.4552237044       -1.0095892480
 H         -3.0988668363        4.1921902221       -0.7801171550
 C         -3.5964143632        3.1278808053        0.9906801390
 H         -3.9511405710        4.0332853979        1.4884718381
 H         -2.5447238813        2.9884082671        1.2559613914
 C         -4.3867480909        1.9301219643        1.5340647164
 H         -4.0848252118        1.7622078618        2.5708694715
 H         -5.4553640774        2.1432217752        1.5105012320
 H         -6.5733951638        2.5124441730       -2.3072514030
 H         -4.9335565949        1.9038997089       -2.5406159262
 H         -6.6236338554        1.3721226669       -0.0585126626
 H         -6.5421331390        0.3023040418       -1.4694297574
 O         -4.4697049028       -0.7658201899       -1.0718543445
 C         -3.3802393430       -1.5734400129       -0.7596797264
 O         -3.2035351576       -2.5023405376       -1.5674615549
 O         -2.2963835512        0.1617482597        2.2285285902
 C         -1.4585135290       -2.1080539164        0.8248619696
 C         -0.1983884948       -1.5630518478        0.2027465270
 C         -0.0733293137       -1.4359978840       -1.1778416200
 C          1.0793331814       -0.9076252347       -1.7287963345
 C          2.1228007575       -0.4878963928       -0.9210314084
 C          1.9981205615       -0.5870791610        0.4576204803
 C          0.8441814596       -1.1320117159        1.0084643056
 H          0.7449645954       -1.1969049543        2.0836408232
 N          3.0479873476       -0.1609888373        1.2854870809
 S          3.8115547395        1.2968843468        0.9555871623
 O          4.3772352874        1.7144329779        2.2196052762
 O          2.9215436097        2.2315199827        0.3074034068
 C          5.1334134491        0.8389618703       -0.1467892835
 C          5.2822273591        1.4946836814       -1.3531156464
 C          6.3235106596        1.1278614786       -2.1916182734
 C          7.1936851804        0.1182189885       -1.8102217739
 C          7.0327596849       -0.5280656514       -0.5935679691
 C          5.9946237159       -0.1655480344        0.2494945077
 H          5.8376384068       -0.6408002702        1.2032721013
 H          7.7116668138       -1.3125140139       -0.3003155037
 H          8.0018529044       -0.1665644241       -2.4652624403
 H          6.4504839694        1.6300598677       -3.1372571577
 H          4.5782933786        2.2702660952       -1.6107730341
 H          2.8541051294       -0.2512340512        2.2723921490
 H          3.0182641841       -0.0681905931       -1.3489380349
 H          1.1670498293       -0.8185171607       -2.8011198242
 H         -0.8920969551       -1.7506821011       -1.8078052481
 H         -1.3871246970       -1.9383191768        1.9113020507
 C         -1.6503639236       -3.6025980961        0.6137660033
 C         -0.8401398841       -4.4222369137       -0.3408150984
 C         -0.6196835634       -4.5615683346        1.1334840067
 H         -0.9505486339       -5.4617470744        1.6287444287
 H          0.2855198602       -4.1378688194        1.5425686730
 H         -1.3482220959       -5.2139000400       -0.8697812963
 H         -0.0790423815       -3.9291169826       -0.9240148092
 H         -2.6883793165       -3.8959202801        0.7308399077
