  62
        -98.94569873
 C         -0.7485666296       -1.7900304201        0.0793691130
 C         -1.9576652350       -1.6518995803        0.8054162292
 C         -2.9505580399       -0.7321217559        0.2408629306
 C         -2.6653479283       -0.0556279752       -0.8864537263
 C         -3.6002985163        0.8656693727       -1.6242915396
 C         -3.6561512715        2.2994885929       -1.0806314124
 C         -4.3591593950        2.4612385744        0.2671514779
 H         -4.5083526399        3.5314325504        0.4244982306
 H         -5.3455567472        1.9983471379        0.2219297720
 C         -3.5788944002        1.8930579353        1.4613024780
 H         -2.5310192568        1.7428486957        1.1870357674
 H         -3.5834728486        2.6171016536        2.2798123100
 C         -4.1378574007        0.5818873922        2.0142854478
 H         -5.1297242577        0.7567189339        2.4378673107
 H         -3.4813111089        0.2453101056        2.8211696801
 C         -4.2404220384       -0.5473319289        0.9811713155
 H         -4.4545875606       -1.4780068908        1.5128195618
 H         -5.0549513499       -0.3463342987        0.2850106699
 H         -4.1884877030        2.9058202881       -1.8174448206
 H         -2.6394029853        2.6887844898       -1.0012252838
 H         -4.6042363919        0.4390316364       -1.6183552924
 H         -3.2464180034        0.9020081381       -2.6568469183
 O         -1.4721154179       -0.1731205258       -1.5242532942
 C         -0.4756326433       -1.0192099900       -1.0517099276
 O          0.5706923735       -0.9892936326       -1.7241083451
 O         -2.2009723192       -2.2810070643        1.8708760876
 C          0.2927132046       -2.7501623695        0.6221289559
 C          1.6566616140       -2.1060340198        0.6428166265
 C          2.8133659140       -2.7328487737        0.1971737163
 C          4.0348374967       -2.0858478164        0.2701290299
 C          4.1280202552       -0.8001160383        0.7683075560
 C          2.9747156072       -0.1612103315        1.2099778601
 C          1.7593757568       -0.8214503409        1.1629440046
 H          0.8737708531       -0.3147425429        1.5188280801
 N          3.0210756013        1.1523112536        1.7109777123
 S          1.8443459003        2.2417345138        1.2549599538
 O          2.4217788548        3.5353771864        1.5631317236
 O          0.5976958743        1.9490833055        1.9191735157
 C          1.6391271370        2.1110486598       -0.5119044622
 C          2.7208915809        1.8502715445       -1.3275063508
 C          2.5290999804        1.8107182085       -2.6985691236
 C          1.2719580543        2.0462189194       -3.2302656255
 C          0.1982844750        2.3200407084       -2.3996265107
 C          0.3834107333        2.3494894881       -1.0280352596
 H         -0.4252476553        2.5373991283       -0.3378515145
 H         -0.7824558376        2.4950589044       -2.8127030449
 H          1.1248027945        2.0082615809       -4.2981383326
 H          3.3609532251        1.5893531449       -3.3477191288
 H          3.6925528036        1.6698524117       -0.8980206496
 H          3.9354820325        1.5807628186        1.6981096348
 H          5.0796668043       -0.2925721248        0.8155060542
 H          4.9252520065       -2.5865315026       -0.0781922241
 H          2.7610769917       -3.7239996157       -0.2214978543
 H         -0.0111961017       -2.9147498843        1.6706983607
 C          0.2814677879       -4.1167140488       -0.0504040658
 C         -0.9098492294       -4.5978532029       -0.8222411689
 C          0.3615727712       -4.2633976963       -1.5396537508
 H          0.9478787635       -5.0744852906       -1.9459569943
 H          0.3991584277       -3.3573420957       -2.1236091879
 H         -1.1932357974       -5.6355795011       -0.7276644527
 H         -1.7488670444       -3.9248688478       -0.9250951076
 H          0.7947302782       -4.8675877514        0.5423188901
