  62
        -98.93208048
 C          2.6036243219        1.2720390135        0.2060722268
 C          2.9391409760        0.2603880359        1.1385423804
 C          4.0771695819       -0.6180820036        0.8105642258
 C          4.7413961790       -0.4054544481       -0.3404659784
 C          5.8921971886       -1.1908541168       -0.9103992395
 C          5.4467226198       -2.5288175655       -1.5237382696
 C          4.4301327921       -3.3108205018       -0.6956762468
 H          4.1106271433       -4.1714127299       -1.2893475023
 H          3.5486552360       -2.6888262113       -0.5285734815
 C          4.9446259744       -3.8336758635        0.6434267004
 H          5.7957261799       -4.4951291596        0.4662891853
 H          4.1450188830       -4.4328505830        1.0865183541
 C          5.3612317995       -2.7707499509        1.6618758420
 H          6.3319924677       -2.3501737641        1.4137662838
 H          5.4784916948       -3.2731304980        2.6266551199
 C          4.3416484891       -1.6559737533        1.8745521044
 H          4.6234970309       -1.0929844104        2.7728227710
 H          3.3675874339       -2.1005198087        2.1084308880
 H          6.3326857638       -3.1432493941       -1.6922629425
 H          4.9916316023       -2.3188957291       -2.4947200364
 H          6.6515529270       -1.3454837743       -0.1496071907
 H          6.3316576579       -0.5763131817       -1.6991509715
 O          4.3938786748        0.5895002180       -1.2032213023
 C          3.3233836584        1.4400730075       -0.9768144190
 O          3.1438254316        2.2723144343       -1.8841109606
 O          2.3060094924        0.0914105002        2.2167604207
 C          1.4085081542        2.1424171877        0.5517427457
 C          0.1523201048        1.5204963668       -0.0033500939
 C          0.0299146708        1.2340891484       -1.3601117098
 C         -1.1209285829        0.6433820876       -1.8478943198
 C         -2.1638877219        0.3146400956       -0.9985062997
 C         -2.0510854566        0.5923349320        0.3567518213
 C         -0.8979508177        1.1988466349        0.8425203763
 H         -0.8073273224        1.4020448892        1.9010600588
 N         -3.0835522801        0.2328534236        1.2323521377
 S         -4.6863743055        0.4355956033        0.7945762309
 O         -4.8552419030        1.5633366641       -0.0915351039
 O         -5.4081811198        0.4878352311        2.0465913056
 C         -5.0937243721       -1.0775703671       -0.0506322793
 C         -4.8402516203       -2.2723330695        0.5940972920
 C         -5.1573491789       -3.4590752084       -0.0470234224
 C         -5.7225396520       -3.4314878320       -1.3133630378
 C         -5.9753429267       -2.2237262609       -1.9453747284
 C         -5.6592534445       -1.0329825082       -1.3097661219
 H         -5.8334709865       -0.0711808575       -1.7657339821
 H         -6.4155084028       -2.2044288698       -2.9294495320
 H         -5.9673540438       -4.3569421085       -1.8103642922
 H         -4.9621209202       -4.4002340840        0.4414464955
 H         -4.4028157610       -2.2527164505        1.5784198059
 H         -2.9199779352        0.4744613234        2.1981260205
 H         -3.0588601339       -0.1504743080       -1.3774592842
 H         -1.2058213879        0.4291433839       -2.9025871556
 H          0.8472804214        1.4785792646       -2.0220401610
 H          1.3402433773        2.0960200627        1.6503428291
 C          1.5867129081        3.6050757722        0.1724438557
 C          0.7668974885        4.3063915626       -0.8645741156
 C          0.5528085678        4.6112076318        0.5857053166
 H          0.8796388256        5.5641871419        0.9732589033
 H         -0.3501514976        4.2343094515        1.0434985808
 H          1.2660788424        5.0364785837       -1.4830922219
 H          0.0037091106        3.7480187589       -1.3830783195
 H          2.6227581004        3.9183286242        0.2492589760
