  62
        -98.94412236
 C          1.8362084309        1.3467726294        0.1256835412
 C          2.0090308012        0.3575728994       -0.8726882087
 C          3.3572908012       -0.2216311809       -0.9797203380
 C          4.3333824008        0.2028321688       -0.1580607474
 C          5.7305354907       -0.3433789215       -0.1254771466
 C          5.8537194598       -1.4986997216        0.8778409534
 C          4.7648408997       -2.5620529313        0.7337748928
 H          4.9714863191       -3.3408805514        1.4711119729
 H          3.7993743796       -2.1222731511        0.9953097822
 C          4.6731193703       -3.1925362313       -0.6628926473
 H          5.5964063106       -3.0091525615       -1.2136217068
 H          4.5714017600       -4.2742691112       -0.5521488474
 C          3.4824316509       -2.7167082910       -1.4973064780
 H          2.5647003405       -2.8137961108       -0.9111893685
 H          3.3887216912       -3.3783768509       -2.3626800480
 C          3.5700109615       -1.2794366710       -2.0263730579
 H          4.5250120618       -1.1327301312       -2.5345671373
 H          2.7675627619       -1.1452943108       -2.7574928383
 H          6.8346057298       -1.9609692218        0.7530794639
 H          5.7979546194       -1.0876565616        1.8885141434
 H          6.0061625611       -0.6829985916       -1.1219987365
 H          6.4060589107        0.4594994083        0.1745814638
 O          4.1371684905        1.1620532688        0.7806627325
 C          2.8957649706        1.7484278591        0.9476876818
 O          2.8590495803        2.6127900391        1.8460210918
 H         -0.4447311093       -0.3902404401       -0.2116497201
 C         -0.8506529897       -0.0141371000        0.7158002897
 C         -0.4471877297        1.2300358699        1.1789805099
 C         -0.9869086203        1.6990857300        2.3706619296
 C         -1.9072853508        0.9426713802        3.0763419591
 C         -2.3049376909       -0.2985583097        2.6114739089
 C         -1.7631056803       -0.7780493698        1.4269671491
 N         -2.1742402803       -2.0389104297        0.9317197489
 S         -3.7541824100       -2.0639738293        0.3686418380
 O         -4.6481474506       -1.9309521991        1.4906755475
 O         -3.8799302699       -3.2746992192       -0.4105235421
 C         -3.8648801091       -0.6268311092       -0.6808792220
 C         -4.2799014391        0.5736008808       -0.1407541222
 C         -4.2742424484        1.7037790909       -0.9418058422
 C         -3.8518014477        1.6144083408       -2.2591046120
 C         -3.4339096777        0.4019940307       -2.7854365718
 C         -3.4338925984       -0.7306789593       -1.9880921518
 H         -3.1175638784       -1.6921985994       -2.3603379916
 H         -3.1009169671        0.3368947706       -3.8089931416
 H         -3.8489865471        2.4946514008       -2.8830509919
 H         -4.5934813884        2.6493790009       -0.5342735424
 H         -4.6019838497        0.5994924809        0.8872720776
 H         -1.5675120200       -2.3736319798        0.1950423892
 H         -3.0316389613       -0.8961944495        3.1376683884
 H         -2.3185713313        1.3225948103        3.9991293789
 H         -0.6744827102        2.6617468799        2.7481095698
 C          0.5202915810        2.0675472497        0.3782138905
 H          0.7818908208        2.9470235496        0.9811692907
 C         -0.1487323282        2.5455909099       -0.8977636399
 C         -1.0424317580        3.7457388301       -0.8416831103
 C          0.2939313424        3.8367267998       -1.5140656996
 H          0.3304361331        3.9067666398       -2.5906808496
 H          1.0820448723        4.3828707596       -1.0156290391
 H         -1.9280131876        3.7544816003       -1.4566875008
 H         -1.1618491384        4.2366973501        0.1120735896
 H         -0.4233181180        1.7410830700       -1.5672137100
 O          1.0999639016       -0.0460508804       -1.6479601992
