  62
        -98.93893764
 C         -2.4697499399       -1.0364561507        0.3480347181
 C         -2.6389926695        0.1665538748        1.0841017084
 C         -3.9305742276        0.8458638637        0.9416182195
 C         -4.8848913859        0.3017296414        0.1651768489
 C         -6.2750694770        0.8385391995       -0.0432558457
 C         -6.3748187645        1.9245279552       -1.1227718943
 C         -5.7836321445        3.2803388239       -0.7354030178
 H         -6.1107599768        4.0000232787       -1.4883342641
 H         -6.2000438586        3.5974300955        0.2211496351
 C         -4.2502742347        3.3036887708       -0.6642643430
 H         -3.8742085363        4.1896685015       -1.1808328417
 H         -3.8465385655        2.4338893890       -1.1879147145
 C         -3.6804925587        3.3324758633        0.7542434539
 H         -2.5893119591        3.3102340265        0.6860056368
 H         -3.9675293654        4.2647103590        1.2460321005
 C         -4.1231704071        2.1589389011        1.6381440548
 H         -3.5012113345        2.1525889162        2.5367668040
 H         -5.1649127333        2.2831403539        1.9339300466
 H         -5.8883191463        1.5608692194       -2.0306257125
 H         -7.4348714999        2.0646854580       -1.3461267696
 H         -6.6610148657        1.2256588517        0.9002329899
 H         -6.8910142834       -0.0094656441       -0.3500217294
 O         -4.6902829822       -0.8536474658       -0.5191178154
 C         -3.4833735022       -1.5385871624       -0.4694978155
 O         -3.4696571506       -2.5566675794       -1.1888887409
 O         -1.7515660446        0.6422647620        1.8442137235
 C         -1.1425636390       -1.7529844276        0.5199097198
 C         -0.1612242753       -1.4604275971       -0.5908847948
 C         -0.4840842702       -1.6718958228       -1.9267760381
 C          0.4484732537       -1.4221299312       -2.9170346831
 C          1.7158065172       -0.9696499988       -2.5967410071
 C          2.0549563608       -0.7707162246       -1.2626745480
 C          1.1124359692       -1.0100293103       -0.2724943210
 H          1.3774474737       -0.8292436742        0.7581274555
 N          3.3595538913       -0.3784757905       -0.9197888973
 S          3.6612439268        0.5455897979        0.4569490005
 O          3.4688862982       -0.2761417225        1.6248362765
 O          2.9147131711        1.7834030438        0.4055128647
 C          5.4014785645        0.8563819368        0.2261235688
 C          5.8234555617        2.0734567666       -0.2737963928
 C          7.1793669915        2.2821825505       -0.4734357351
 C          8.0844715673        1.2751524494       -0.1742764607
 C          7.6457589119        0.0588334495        0.3280804157
 C          6.2920968318       -0.1557431147        0.5311834775
 H          5.9051337523       -1.0802537842        0.9267508187
 H          8.3525512947       -0.7208712770        0.5619754374
 H          9.1387697576        1.4400248807       -0.3308975442
 H          7.5238097581        3.2276085793       -0.8605055365
 H          5.0845217805        2.8297129620       -0.4849823862
 H          3.8803601328       -0.0257393283       -1.7114381840
 H          2.4413292056       -0.7785446573       -3.3728250758
 H          0.1844410187       -1.5817886514       -3.9517095326
 H         -1.4693000819       -2.0324367204       -2.1792085838
 H         -0.7157406872       -1.3424803985        1.4462426253
 C         -1.2828097772       -3.2552722311        0.6855871517
 C         -0.1793107341       -4.0157139601        1.3547531036
 C         -1.4924311448       -3.8289578144        2.0529324786
 H         -2.1488304804       -4.6795319967        2.1586655959
 H         -1.5346038883       -3.1384796532        2.8830687315
 H          0.0689879066       -4.9969889038        0.9807313690
 H          0.6704453060       -3.4525176380        1.7117280663
 H         -1.7964984577       -3.7299994393       -0.1401728221
