  62
        -98.94124195
 C         -2.0167539988       -1.2234232483        0.1196363616
 C         -2.8019950888       -0.6592822258        1.1572469916
 C         -3.9833867504        0.1012610951        0.7363613053
 C         -4.2494758062        0.2463709537       -0.5742412016
 C         -5.4303998109        0.9689251000       -1.1636487499
 C         -5.2348751320        2.4858333811       -1.2917484480
 C         -5.2736513625        3.2603015375        0.0263634006
 H         -5.3415819026        4.3202165983       -0.2267648962
 H         -6.1792521150        2.9980002626        0.5742846549
 C         -4.0464100213        3.0452779641        0.9232371359
 H         -3.6942074837        4.0099105507        1.2961621378
 H         -3.2342653729        2.6168619718        0.3306827709
 C         -4.2984432694        2.1533633042        2.1391814712
 H         -3.3570080288        2.0405458369        2.6830681411
 H         -5.0153084259        2.6379314924        2.8056616874
 C         -4.8191268465        0.7509708251        1.7977637125
 H         -4.7551144104        0.1338163163        2.6973317047
 H         -5.8610390507        0.8032438613        1.4825821862
 H         -6.0335092615        2.8641726115       -1.9339922839
 H         -4.2850236038        2.6743310726       -1.7979295788
 H         -5.5794981442        0.5562471866       -2.1637946847
 H         -6.3199513056        0.7647108285       -0.5669522106
 O         -3.4536508526       -0.2788520716       -1.5414315311
 C         -2.3072351806       -1.0023582198       -1.2279785232
 O         -1.6637660005       -1.3758947077       -2.2249421101
 H          0.1968138980        0.4452734677        0.5424485880
 C          0.7812364040       -0.1925273155       -0.1099365398
 C          0.4161670526       -1.5264293080       -0.2527019742
 C          1.1743626292       -2.3338730144       -1.0889386631
 C          2.2512214513       -1.8080718663       -1.7823226242
 C          2.5993652516       -0.4768517873       -1.6529430303
 C          1.8549314033        0.3373734442       -0.8079409293
 N          2.2048804587        1.6894815001       -0.6603911418
 S          3.8230484295        2.0832809844       -0.5086736576
 O          3.8389529567        3.3254747382        0.2320080892
 O          4.4412344581        2.1205378189       -1.8105889705
 C          4.5384089826        0.7678906529        0.4616573469
 C          4.0395154565        0.5515102274        1.7310084687
 C          4.5606062898       -0.4846267096        2.4883949927
 C          5.5671279199       -1.2827955474        1.9661453764
 C          6.0613393488       -1.0491079572        0.6925039391
 C          5.5421235293       -0.0152682921       -0.0704373126
 H          5.8951076482        0.1998487125       -1.0658364368
 H          6.8455237463       -1.6697208696        0.2900142525
 H          5.9684256980       -2.0905021886        2.5575359504
 H          4.1776379467       -0.6671442695        3.4796624820
 H          3.2606816917        1.1936130759        2.1105493211
 H          1.6364952830        2.1955898934        0.0016996381
 H          3.4203937053       -0.0494727618       -2.2053064819
 H          2.8231809987       -2.4435862110       -2.4409285530
 H          0.9051660633       -3.3684058285       -1.2219388862
 C         -0.7826342006       -2.0107032226        0.5233032111
 H         -0.6284130713       -1.7420959599        1.5821521441
 C         -0.9596629465       -3.5209307574        0.4881840017
 C         -2.3068378669       -4.1436001039        0.6973813576
 C         -1.6415195918       -4.2298489006       -0.6419255235
 H         -1.2492908144       -5.1860092573       -0.9565717364
 H         -2.0268397649       -3.6297377319       -1.4508648281
 H         -3.1537422837       -3.4813339596        0.8054032785
 H         -2.3719679503       -5.0368075479        1.3004339354
 H         -0.1200754239       -4.0346291818        0.9463371864
 O         -2.5248536732       -0.7832788287        2.3802662694
