  62
        -98.93280001
 C          1.9218472196        1.1380299399       -0.5783649708
 C          2.9738783797        1.3304681699        0.3510961691
 C          4.1939336395        0.5187164194        0.1844231593
 C          4.2432233292       -0.3642461309       -0.8297105305
 C          5.3504076489       -1.3209581013       -1.1868268102
 C          5.4172273386       -2.5338622810       -0.2461321999
 C          5.2960083287       -2.2012329606        1.2384314800
 H          5.2637586485       -3.1458597704        1.7878378803
 H          4.3465378389       -1.6923210602        1.4144628299
 C          6.4369712390       -1.3645671407        1.8126824497
 H          7.3823357888       -1.8857068711        1.6464780198
 H          6.2786224791       -1.3003680104        2.8921889097
 C          6.5620113394        0.0604009791        1.2680817093
 H          7.0407478394        0.0697942186        0.2924973693
 H          7.2242061796        0.6095839491        1.9436648591
 C          5.2502564596        0.8367791594        1.2152629191
 H          5.4788541099        1.9006421293        1.0793413888
 H          4.7537499497        0.7730328499        2.1901694492
 H          6.3561307784       -3.0595191414       -0.4289194398
 H          4.5970265584       -3.2082164709       -0.5051023797
 H          6.3022811390       -0.7985366616       -1.2108877004
 H          5.1405691887       -1.6767438415       -2.1981183501
 O          3.2040739291       -0.5259339808       -1.6964294404
 C          2.0266238793        0.2040804796       -1.6093547005
 O          1.2018697892       -0.0764412504       -2.4971334204
 O          2.9034004800        2.1651113502        1.2940566588
 C          0.6881156299        2.0010395703       -0.3812757210
 C         -0.3118041203        1.3194979309        0.5179649492
 C         -0.7854467800        1.9724758014        1.6516048891
 C         -1.6856234701        1.3570114719        2.5023907493
 C         -2.1516436305        0.0859711519        2.2205518697
 C         -1.6895391008       -0.5737869485        1.0878893299
 C         -0.7639789306        0.0332790809        0.2511389896
 H         -0.4040429708       -0.5021150094       -0.6143332802
 N         -2.1790018112       -1.8570411085        0.7465104503
 S         -3.2593312113       -1.8679929785       -0.5365674697
 O         -3.7639275417       -3.2215089584       -0.6072548293
 O         -2.6205451912       -1.3457427291       -1.7140595099
 C         -4.5610279009       -0.7663960280       -0.0054691199
 C         -4.4033970705        0.5923593919       -0.1946358703
 C         -5.3748321802        1.4526354823        0.2925110294
 C         -6.4792981003        0.9429257829        0.9578836996
 C         -6.6245672907       -0.4244512771        1.1373746401
 C         -5.6540715810       -1.2894462875        0.6575711903
 H         -5.7266364513       -2.3592591474        0.7703327606
 H         -7.4868070208       -0.8182119766        1.6509918602
 H         -7.2319708301        1.6162110632        1.3365672895
 H         -5.2621790199        2.5154783123        0.1513923391
 H         -3.5351827404        0.9516537815       -0.7231858505
 H         -2.6018056513       -2.3430194781        1.5265545004
 H         -2.8634612007       -0.3980008377        2.8726736699
 H         -2.0336601700        1.8729942722        3.3836761392
 H         -0.4238164897        2.9658735613        1.8722146688
 H          1.0583449902        2.8839009304        0.1653040987
 C          0.0782756400        2.5173491101       -1.6754864911
 C         -1.0994465302        1.9027681103       -2.3628563709
 C         -1.2526062498        3.2120073005       -1.6518136713
 H         -1.3813924296        4.1072904204       -2.2409127015
 H         -1.7904126897        3.2152115710       -0.7151746612
 H         -1.0896694103        1.8954284400       -3.4427429609
 H         -1.5412972705        1.0100094205       -1.9493969806
 H          0.8383371101        2.9383996297       -2.3273397113
