  62
        -98.93764978
 C         -2.3020025198       -1.3385339414        0.0015635608
 C         -3.1325012000       -0.6618847612        0.9247750205
 C         -3.9232216805        0.4523568482        0.3854163499
 C         -3.8221327006        0.7693365676       -0.9181770202
 C         -4.5937183110        1.8388757969       -1.6456264808
 C         -4.3131249716        3.2934756172       -1.2208086015
 C         -5.2769129518        3.8405658074       -0.1602922917
 H         -6.2118687516        3.2817197170       -0.2149694615
 H         -5.5161083622        4.8771217272       -0.4061551222
 C         -4.7595071518        3.8322297783        1.2813513883
 H         -5.6112775218        4.0012779083        1.9435031482
 H         -4.0670462821        4.6663676486        1.4165686079
 C         -4.0349477113        2.5604876788        1.7225262489
 H         -3.8959868913        2.6046969794        2.8046302189
 H         -3.0337777213        2.5391636490        1.2839844689
 C         -4.7530969608        1.2486147783        1.3502187395
 H         -5.7368792509        1.4541111878        0.9314340894
 H         -4.8786422405        0.6279837387        2.2396664098
 H         -4.4101077318        3.9077365268       -2.1174902418
 H         -3.2805380716        3.3815407378       -0.8826476715
 H         -5.6612537809        1.6316014666       -1.5420785206
 H         -4.3308703710        1.7193771465       -2.6986933307
 O         -3.0016954203        0.0973578275       -1.7725911999
 C         -2.2133993099       -0.9583968820       -1.3376974194
 O         -1.4987212797       -1.4649633622       -2.2227849291
 O         -3.2103295199       -0.9742438807        2.1439610106
 C         -1.4491583693       -2.4957833408        0.4877313114
 C          0.0134999505       -2.1993434804        0.2622690012
 C          0.9093043909       -3.1237455203       -0.2583892883
 C          2.2372927908       -2.7822898299       -0.4493046585
 C          2.7026305103       -1.5224093195       -0.1216897391
 C          1.8164708699       -0.5909978396        0.4036301104
 C          0.4888765201       -0.9377517600        0.5985464706
 H         -0.2000676602       -0.2078013201        1.0070918902
 N          2.2784869894        0.6901895707        0.7537829498
 S          3.1875307691        1.5430017205       -0.3728233106
 O          2.9832192486        2.9366107206       -0.0395628913
 O          2.8690575793        1.1515374097       -1.7260283904
 C          4.8652546193        1.0942002114        0.0202412396
 C          5.3087981592        1.3056981422        1.3111067695
 C          6.6124128493        0.9655010828        1.6346904996
 C          7.4465326995        0.4252660227        0.6670765699
 C          6.9872428096        0.2224646219       -0.6252382400
 C          5.6836811195        0.5599799612       -0.9554114502
 H          5.2807529295        0.4156698606       -1.9454392301
 H          7.6370144598       -0.1971506883       -1.3763596398
 H          8.4607348496        0.1609940532        0.9216158100
 H          6.9730618693        1.1220890735        2.6385072996
 H          4.6297357090        1.7309294223        2.0310705293
 H          1.5618165392        1.2824974307        1.1480580995
 H          3.7336675102       -1.2502702192       -0.2773200593
 H          2.9202050310       -3.5092129098       -0.8616845081
 H          0.5659523913       -4.1095465505       -0.5252642578
 H         -1.6233696693       -2.5508773303        1.5730237614
 C         -1.9098331289       -3.7922331713       -0.1447844980
 C         -1.7551421584       -5.0899712809        0.5888519526
 C         -3.1141034386       -4.4821307115        0.4202084624
 H         -3.8094254584       -4.9470195221       -0.2624427474
 H         -3.5848460788       -4.0294680012        1.2807532521
 H         -1.5192459780       -5.9775900711        0.0215174731
 H         -1.3055892384       -5.0591334702        1.5696966526
 H         -1.7924325489       -3.7920164318       -1.2227743780
