  62
        -98.93781631
 C         -0.9728116100       -1.5447842311        0.5359621579
 C         -1.9373388699       -1.3669351706       -0.4855837022
 C         -3.0739003402       -0.4852210412       -0.1594769118
 C         -3.1334799207        0.0962902578        1.0514678486
 C         -4.2167135111        1.0225883271        1.5300874491
 C         -4.0553291114        2.4308634176        0.9239513002
 C         -5.1801752113        2.8408469680       -0.0259625298
 H         -6.0683437615        3.0879868573        0.5592653502
 H         -4.8601072015        3.7508829485       -0.5376463190
 C         -5.5802450507        1.7935473486       -1.0698857506
 H         -6.1682060707        2.3105362890       -1.8310868904
 H         -6.2432796406        1.0568500081       -0.6137802113
 C         -4.4234589503        1.0544807195       -1.7558452209
 H         -4.6753917601        0.9367390102       -2.8115360811
 H         -3.5079185005        1.6437911198       -1.7121235003
 C         -4.1492861100       -0.3561355608       -1.2032938619
 H         -5.0792775300       -0.7834107214       -0.8170829524
 H         -3.8145188096       -0.9950966601       -2.0257334923
 H         -3.1036151513        2.4736013783        0.3928708804
 H         -3.9989580118        3.1675433171        1.7267941207
 H         -5.1876974709        0.6061602370        1.2688047786
 H         -4.1404226213        1.0680343964        2.6169849891
 O         -2.1607769508       -0.0606579525        1.9898078587
 C         -1.0733983105       -0.8875790220        1.7643722984
 O         -0.2777815407       -0.9550226325        2.7239636885
 H          2.3428163797       -0.9954769904        1.0152493790
 C          2.2685484400       -1.1443629196       -0.0522413911
 C          1.2314392603       -1.9067674196       -0.5749223919
 C          1.1686517207       -2.0922857286       -1.9515069720
 C          2.1234371207       -1.5271508477       -2.7773469014
 C          3.1468062003       -0.7568470477       -2.2545130306
 C          3.2159918600       -0.5601616187       -0.8807916204
 N          4.2362066296        0.2275749212       -0.3164978096
 S          3.8029868290        1.3880411702        0.8111237711
 O          4.8827245387        2.3506368106        0.7724253421
 O          3.5516031789        0.7722315992        2.0875760606
 C          2.3173753189        2.1021728402        0.1329550913
 C          1.0830548389        1.6998063495        0.5983443108
 C         -0.0545434211        2.1846802096       -0.0266251491
 C          0.0567882489        3.0617710704       -1.0929727685
 C          1.3054813388        3.4686995612       -1.5388800279
 C          2.4471272989        2.9788566011       -0.9273509380
 H          3.4357569688        3.2719390016       -1.2417496276
 H          1.3891890688        4.1578551518       -2.3635287173
 H         -0.8340800111        3.4314388105       -1.5763070284
 H         -1.0205990911        1.8583701590        0.3255094104
 H          1.0186228790        1.0221044889        1.4351884602
 H          4.8780687096        0.6141761519       -0.9943112892
 H          3.8883781103       -0.3128542370       -2.9009135401
 H          2.0650234910       -1.6817447869       -3.8438887515
 H          0.3561733210       -2.6600624185       -2.3731366026
 C          0.2102916403       -2.4887431306        0.3732171075
 H          0.6782074401       -2.5436767512        1.3658830075
 C         -0.2339260492       -3.8829695204       -0.0238814237
 C          0.7061452511       -5.0314792703        0.1774103257
 C         -0.5071873491       -4.8942270713        1.0464598955
 H         -1.3249305788       -5.5852075215        0.9057785448
 H         -0.3690793194       -4.5866048920        2.0732387158
 H          1.6692283910       -4.8158383603        0.6156556861
 H          0.7242343416       -5.8197812697       -0.5592334749
 H         -0.8778527890       -3.9018424700       -0.8930202538
 O         -1.8834542394       -1.9274415098       -1.6097394426
