  62
        -98.94878548
 C          1.8104316457        1.3395731987       -0.2475317364
 C          2.8865665563        0.6589961646        0.3664316380
 C          3.2666378134       -0.6185063658       -0.2438086633
 C          2.6044262904       -1.0637393065       -1.3275570846
 C          2.8628310804       -2.3566771655       -2.0514467735
 C          2.1450732067       -3.5556538337       -1.4158295740
 C          2.7629502734       -4.0605227671       -0.1111977642
 H          2.3174835767       -5.0352783428        0.0977276253
 H          3.8348300189       -4.2116145685       -0.2477878515
 C          2.5164429355       -3.1423798841        1.0942250534
 H          1.6849850304       -2.4692617364        0.8677264624
 H          2.2063570798       -3.7453214859        1.9519652992
 C          3.7334035621       -2.3250575095        1.5305976301
 H          3.4330187399       -1.6822866987        2.3626168625
 H          4.5139634286       -2.9989087467        1.8919374803
 C          4.3281419740       -1.4322349955        0.4335251254
 H          4.8655853949       -2.0393253136       -0.2943598828
 H          5.0318483962       -0.7390427642        0.9016432278
 H          1.1024498031       -3.2803145352       -1.2347208937
 H          2.1577589210       -4.3718147665       -2.1422590976
 H          2.4846747749       -2.2271613558       -3.0677169951
 H          3.9348396387       -2.5506651011       -2.0987482995
 O          1.5997358712       -0.3625603278       -1.9106816735
 C          1.1342761218        0.8140742010       -1.3496306026
 O          0.1435310845        1.3023225344       -1.9270919521
 O          3.4893863232        1.0921141605        1.3877663453
 C          1.2712770388        2.6074470669        0.3945708120
 C         -0.1633229216        2.3526989504        0.7856226752
 C         -1.2187327571        3.2028284287        0.4838052274
 C         -2.5233615759        2.8342906843        0.7682835455
 C         -2.8044465209        1.6024047704        1.3311896440
 C         -1.7521647391        0.7597929755        1.6618781123
 C         -0.4480151606        1.1508013492        1.4233298778
 H          0.3623840831        0.4773042114        1.6754970135
 N         -2.0416384270       -0.5548289000        2.1378438306
 S         -1.9198217809       -1.6518278965        0.8530214823
 O         -2.2579755340       -2.9454631462        1.4095340975
 O         -0.6245902742       -1.5795227272        0.2116906247
 C         -3.2082766129       -1.0865246070       -0.2295578704
 C         -4.4988962102       -1.5131713469        0.0177954276
 C         -5.5263903922       -1.0340795022       -0.7779602373
 C         -5.2460408241       -0.1355781193       -1.7969970035
 C         -3.9450366698        0.2826922515       -2.0299252814
 C         -2.9097140819       -0.1938183337       -1.2397463620
 H         -1.8883176419        0.1205882772       -1.3967110502
 H         -3.7219476941        0.9835042334       -2.8183296376
 H         -6.0458203042        0.2421870708       -2.4143530873
 H         -6.5391860739       -1.3578486820       -0.6000069736
 H         -4.6633863698       -2.2124982224        0.8209806676
 H         -1.3981736141       -0.8556869116        2.8591464451
 H         -3.8176590106        1.2821396933        1.5110857484
 H         -3.3327121417        3.5025406558        0.5185375595
 H         -1.0205102815        4.1469221813        0.0031304190
 H          1.8699678890        2.7563727956        1.3055024073
 C          1.4515791732        3.8025388638       -0.5156866751
 C          1.5842232769        5.1788424122        0.0632648431
 C          2.7765691733        4.5016186447       -0.5405366977
 H          3.1520749454        4.8597709460       -1.4871816560
 H          3.5456747174        4.1286726651        0.1200865062
 H          1.1434584185        6.0072644585       -0.4701683340
 H          1.5476872172        5.2748663132        1.1378289108
 H          0.9280640079        3.6881476666       -1.4581168519
