  62
        -98.94476814
 C          1.9496755104        1.1336063891       -0.2466264707
 C          3.0675360106        1.1798928895        0.6295928590
 C          4.2868398104        0.5002792792        0.1769186692
 C          4.2939852502       -0.0977220815       -1.0278660605
 C          5.4476063000       -0.8693252719       -1.5981943503
 C          5.3521662500       -2.3581543917       -1.2363957294
 C          5.0891698803       -2.6177506908        0.2471551108
 H          4.0943372404       -2.2459223606        0.5041164708
 H          5.0721474103       -3.7005414207        0.3895522315
 C          6.1236788205       -1.9938213903        1.1944439402
 H          6.3955856306       -2.7335075699        1.9504134106
 H          7.0309374304       -1.7475728107        0.6415492399
 C          5.6332108907       -0.7525868998        1.9425057096
 H          4.6743966608       -0.9686222995        2.4208487399
 H          6.3512829209       -0.5286701394        2.7358350393
 C          5.4747974406        0.5172333797        1.0966945989
 H          6.3936111105        0.7038270093        0.5371142086
 H          5.3123437208        1.3547348801        1.7813400385
 H          4.5362972499       -2.8031295220       -1.8109329490
 H          6.2820895499       -2.8462212019       -1.5338170993
 H          5.4278185698       -0.7664025025       -2.6844853403
 H          6.3789166901       -0.4519452217       -1.2204064007
 O          3.2166399100       -0.1044514619       -1.8497581203
 C          2.0167990301        0.4870306883       -1.4806030404
 O          1.1220862099        0.3574196279       -2.3418503401
 O          3.0442441108        1.7716426702        1.7414245787
 C          0.6868788905        1.8279284494        0.2359967191
 C         -0.3041878094        0.8450969598        0.8127662499
 C         -0.7216285792        0.9425696906        2.1347160199
 C         -1.6479724891        0.0520908009        2.6502169706
 C         -2.1761056993       -0.9514994095        1.8587194913
 C         -1.7613750196       -1.0586348403        0.5370991213
 C         -0.8400201096       -0.1602013207        0.0201183506
 H         -0.5218466998       -0.2498296613       -1.0079163194
 N         -2.3006822398       -2.0708733308       -0.2794182280
 S         -3.9727055498       -2.1657845507       -0.3258049976
 O         -4.4423072196       -2.9080659800        0.8178705829
 O         -4.2958124601       -2.7291855915       -1.6177161172
 C         -4.5253330497       -0.4728063706       -0.2152379285
 C         -4.1394723798        0.4008336288       -1.2126900691
 C         -4.5131903998        1.7310612188       -1.1190770398
 C         -5.2603507795        2.1637972095       -0.0342273099
 C         -5.6435159494        1.2733638901        0.9563351307
 C         -5.2708178294       -0.0585312100        0.8693082714
 H         -5.5420732293       -0.7837249695        1.6189820319
 H         -6.2259132692        1.6125313506        1.7977005906
 H         -5.5448074195        3.2016267296        0.0375000796
 H         -4.2157280699        2.4238049284       -1.8899314303
 H         -3.5598210700        0.0339862983       -2.0450092290
 H         -1.9139450800       -2.0758364513       -1.2124276581
 H         -2.8964324492       -1.6565363693        2.2412273019
 H         -1.9612863489        0.1392327015        3.6791934606
 H         -0.3048791890        1.7156934309        2.7633003494
 H          1.0184769907        2.4836835598        1.0520349487
 C          0.0224366703        2.6831430988       -0.8263022713
 C         -0.9089133895        3.7763968391       -0.4002897217
 C          0.4320760704        4.1160695487       -0.9770889422
 H          0.4792349402        4.5356350081       -1.9708294024
 H          1.1955882205        4.4903296190       -0.3106730025
 H         -1.7874831896        3.9647297588       -0.9972268416
 H         -1.0568864393        3.9228590997        0.6586092682
 H         -0.2176269899        2.1376934783       -1.7293635509
