  62
        -98.93880994
 C          1.7461867472        0.6080440016        0.9139700660
 C          2.1531945984       -0.1490515048       -0.2135381349
 C          2.0386206200       -1.6111545171       -0.0895204792
 C          1.5079064731       -2.1402389543        1.0258787790
 C          1.1746045444       -3.5905838731        1.2295679332
 C         -0.1246149725       -3.9276328436        0.4680399262
 C          0.0555431318       -4.9326560995       -0.6687371785
 H          0.1931436744       -5.9312527841       -0.2474876057
 H         -0.8732360041       -4.9382054197       -1.2437633288
 C          1.2255712527       -4.6524932254       -1.6169135243
 H          1.0612458307       -5.2548414896       -2.5130597781
 H          2.1548215185       -5.0083182579       -1.1680856407
 C          1.4132808007       -3.1883300162       -2.0367253009
 H          0.4765700217       -2.6341571671       -1.9579446041
 H          1.7034762335       -3.1713711444       -3.0898420904
 C          2.5075066899       -2.4358238160       -1.2550813968
 H          3.2733667349       -3.1421777874       -0.9210007912
 H          2.9855638572       -1.7213422616       -1.9317995653
 H         -0.8659960859       -4.3247931974        1.1640779684
 H         -0.5375556710       -3.0026805241        0.0574296053
 H          1.9958219679       -4.2123283270        0.8799435727
 H          1.0429263325       -3.7525584752        2.2998791729
 O          1.1109676854       -1.3838275600        2.0822624094
 C          1.2005610502       -0.0003248709        2.0451792755
 O          0.7569109649        0.5646948503        3.0651493465
 O          2.5893533753        0.3577487647       -1.2793136459
 C          1.6710028256        2.1279986692        0.8687428058
 C          0.9240426420        2.5016345204       -0.3886643784
 C          1.3995228240        3.3572573562       -1.3711722200
 C          0.6624586866        3.5646158931       -2.5255431225
 C         -0.5378377585        2.9103930334       -2.7332404885
 C         -1.0260312331        2.0577743227       -1.7483076822
 C         -0.3124851517        1.8948127371       -0.5752235167
 H         -0.6924076655        1.2354354571        0.1916831971
 N         -2.2367432950        1.3681120547       -1.9093391230
 S         -2.4429501386       -0.1439264484       -1.2210333396
 O         -1.2235278178       -0.9159084289       -1.1949538138
 O         -3.5391150998       -0.7234663739       -1.9705989218
 C         -3.0057375645        0.2068477050        0.4301494012
 C         -4.0649609703        1.0794173727        0.5855043919
 C         -4.5216959857        1.3560970452        1.8636412212
 C         -3.9153582454        0.7593295971        2.9592941354
 C         -2.8570481993       -0.1189578595        2.7869526258
 C         -2.3989906367       -0.4014712163        1.5100359653
 H         -1.5680394897       -1.0695401693        1.3416836845
 H         -2.3717608421       -0.5754672427        3.6348088155
 H         -4.2664612098        0.9795501494        3.9550685889
 H         -5.3450102155        2.0379078697        2.0035419398
 H         -4.5080503257        1.5222640611       -0.2907657320
 H         -2.6482959628        1.4283276286       -2.8289323204
 H         -1.0887636248        3.0458748063       -3.6515341336
 H          1.0435422206        4.2260653196       -3.2889762674
 H          2.3581813294        3.8345857841       -1.2509268476
 H          1.0363941222        2.3995382944        1.7290366972
 C          2.9861527896        2.8645875674        1.0584275564
 C          4.1162254477        2.2334424917        1.8147933042
 C          4.2458671015        2.4828031650        0.3436362970
 H          4.9053108752        3.2741202032        0.0173809805
 H          4.2020449699        1.6426851182       -0.3300767177
 H          4.6856244813        2.8470978408        2.4967604629
 H          3.9819677076        1.2146621257        2.1493260326
 H          2.8297942104        3.9253778197        1.2302419861
