  62
        -98.93977062
 C          2.4157732605        0.7100418287        0.3277975329
 C          2.8168889406       -0.6016904000       -0.0229049517
 C          4.2267601606       -0.9282424709        0.2386935174
 C          5.0246781004       -0.0041663028        0.8046191708
 C          6.4873714004       -0.1880727137        1.0862552804
 C          7.3442597606        0.2927177505       -0.0929410577
 C          6.8912585808       -0.2542993247       -1.4465457498
 H          5.9068027408        0.1550098161       -1.6849204785
 H          7.5868194009        0.1231566380       -2.1992271383
 C          6.8347823010       -1.7863674344       -1.5247165452
 H          7.2885882411       -2.1053889111       -2.4653572262
 H          7.4248375708       -2.2205375673       -0.7168883466
 C          5.4218275010       -2.3724485047       -1.4914650275
 H          4.7997421311       -1.8714841121       -2.2375675658
 H          5.4847629211       -3.4268979137       -1.7732690612
 C          4.7004143908       -2.3034950895       -0.1393076174
 H          5.3405131806       -2.7198562822        0.6411511613
 H          3.7991681408       -2.9195351593       -0.2106973997
 H          7.2987697505        1.3835111707       -0.1318289339
 H          8.3799559406        0.0018477899        0.0915818814
 H          6.6840357104       -1.2391829744        1.2876336467
 H          6.7425403002        0.3969144232        1.9714876725
 O          4.5952404703        1.2375048660        1.1484749251
 C          3.2892918303        1.6293624867        0.9079578163
 O          3.0292755102        2.7990171855        1.2581382404
 O          2.0404828108       -1.4564434083       -0.5241359548
 C          0.9899585605        1.1593663395        0.0773160242
 C         -0.0046382596        0.2971348168        0.8180695810
 C          0.2987070702       -0.1767556277        2.0915640394
 C         -0.6148149098       -0.9317055203        2.8016851166
 C         -1.8643649997       -1.2040865785        2.2735223254
 C         -2.1823594595       -0.7263562140        1.0085405470
 C         -1.2513693695        0.0071092686        0.2857091698
 H         -1.5276734793        0.3596344720       -0.6942239490
 N         -3.4402207194       -0.9758682821        0.4368982059
 S         -4.1438311894        0.2624876111       -0.4738696798
 O         -3.7247023991        0.1254429160       -1.8460393602
 O         -3.8877627296        1.5406264689        0.1494922448
 C         -5.8723576094       -0.1543166896       -0.3258323616
 C         -6.4162314292       -1.0907871366       -1.1846202350
 C         -7.7534171292       -1.4281851071       -1.0467312064
 C         -8.5198608894       -0.8284247207       -0.0584404144
 C         -7.9604336196        0.1104636863        0.7953015490
 C         -6.6237405096        0.4519309469        0.6635696205
 H         -6.1486674497        1.1838996247        1.2969240731
 H         -8.5592386397        0.5775811336        1.5605397406
 H         -9.5606212394       -1.0917828211        0.0451174345
 H         -8.1930143890       -2.1551430348       -1.7103946290
 H         -5.7850872790       -1.5232061838       -1.9434566564
 H         -4.0954576095       -1.3869692644        1.0874992444
 H         -2.5827810098       -1.7830928005        2.8336890132
 H         -0.3566531000       -1.2999250337        3.7833674453
 H          1.2658457101        0.0529766209        2.5183296704
 H          0.9141572903        2.1775791880        0.4901650978
 C          0.7205721807        1.2227153947       -1.4130098956
 C         -0.2242467092        2.2414534367       -1.9733481621
 C          1.2501829208        2.3820289476       -2.2004340714
 H          1.6403614610        2.1996568211       -3.1904509520
 H          1.7802424906        3.1492470157       -1.6543474586
 H         -0.8537545791        1.9575490596       -2.8040535932
 H         -0.7015396994        2.9176846742       -1.2791972998
 H          0.7487283709        0.2444118164       -1.8802743290
