  62
        -98.92599324
 C         -1.9344917048       -0.1534690559       -0.5579884978
 C         -3.0575566483       -1.0044578051       -0.6919151205
 C         -4.3421333812       -0.5106865750       -0.1651345021
 C         -4.3763592060        0.6909489562        0.4380307883
 C         -5.5533282874        1.4096247515        1.0479972855
 C         -6.5054637701        0.5669934194        1.9106962563
 C         -7.8702410503        0.3332630727        1.2603992444
 H         -8.6016611591        0.1317948566        2.0462286327
 H         -8.1775955035        1.2528493930        0.7579916499
 C         -7.9273692976       -0.8272078743        0.2684571327
 H         -7.8687627457       -1.7717451387        0.8136146452
 H         -8.9033817902       -0.7951678350       -0.2215121927
 C         -6.8387517134       -0.8226742375       -0.8065983459
 H         -7.2013270294       -1.4123416600       -1.6512816734
 H         -6.6696946787        0.1886201199       -1.1748198661
 C         -5.5118243118       -1.4404993926       -0.3407901475
 H         -5.1711139241       -2.1764938066       -1.0755401232
 H         -5.6649022004       -1.9947943665        0.5896367509
 H         -6.0362614075       -0.3833008567        2.1603704432
 H         -6.6669386751        1.1029891683        2.8474108263
 H         -5.1146894244        2.2082716331        1.6505561120
 H         -6.1133167815        1.8977781305        0.2463696664
 O         -3.2666045406        1.4727041668        0.5574237455
 C         -2.0276609302        1.0920693267        0.0624240566
 O         -1.1329749879        1.9348515514        0.2502322828
 O         -2.9906543778       -2.1405485521       -1.2357208032
 C         -0.6076774497       -0.6523165615       -1.1197624060
 C          0.4490293024       -0.5734088844       -0.0497549533
 C          0.4409174943       -1.5937094301        0.9038897440
 C          1.3223771817       -1.5968673453        1.9660161686
 C          2.2646703103       -0.5906975885        2.0900971144
 C          2.2860428649        0.4288463386        1.1494645637
 C          1.3765243840        0.4459381408        0.0992588423
 H          1.4126365018        1.2826800008       -0.5730961751
 N          3.2513997674        1.4586730654        1.2186641504
 S          4.3982098790        1.4594119837       -0.0002964362
 O          5.3793487839        2.4476368475        0.3878345137
 O          3.7566977116        1.6482213155       -1.2739873715
 C          5.1163682235       -0.1730663884        0.0829981092
 C          4.4596794639       -1.2230543229       -0.5282465458
 C          4.9730828417       -2.5032198645       -0.3924233259
 C          6.1265325842       -2.7109370068        0.3483957975
 C          6.7754876658       -1.6460066665        0.9547421660
 C          6.2638069755       -0.3645998221        0.8275343859
 H          6.7358888031        0.4931584742        1.2789842100
 H          7.6738663078       -1.8100988392        1.5277463857
 H          6.5217170707       -3.7091632569        0.4519560094
 H          4.4669700635       -3.3308480903       -0.8628070263
 H          3.5663833291       -1.0254384985       -1.0987783660
 H          3.7187309213        1.5140698504        2.1131667253
 H          2.9675868657       -0.5890085157        2.9097851867
 H          1.2853253560       -2.3920795469        2.6946755684
 H         -0.2893130623       -2.3855469731        0.8069767918
 H         -0.7866674855       -1.7248153154       -1.2982304129
 C         -0.3721765319       -0.0581126964       -2.5025333389
 C         -0.0822042641        1.3820388827       -2.7963814122
 C          0.9496745382        0.3337333566       -3.0901295308
 H          1.1320220311        0.0820930152       -4.1249444958
 H          1.8370629129        0.3119114444       -2.4781823741
 H         -0.6015381324        1.8418303170       -3.6258244882
 H          0.0689461337        2.0540004822       -1.9665334521
 H         -1.0631548475       -0.5238409671       -3.2025401922
