  62
        -98.94667231
 C          1.1590073699        1.3562117691        0.2902808453
 C          1.3654558029        0.3379039721       -0.6718521605
 C          2.3470807256       -0.6928784602       -0.3095458329
 C          2.9270389924       -0.6776162388        0.9032022218
 C          3.9353262465       -1.6680263166        1.4190606411
 C          5.3785781129       -1.3577365541        0.9981316625
 C          5.6979561487       -1.6296298105       -0.4726197329
 H          6.7835897506       -1.5809717313       -0.5783943831
 H          5.3922954570       -2.6445692169       -0.7285751408
 C          5.0625733375       -0.6351610816       -1.4545436437
 H          4.7481822605        0.2606340799       -0.9140286858
 H          5.8095745747       -0.3197873200       -2.1866028082
 C          3.8692144120       -1.1871231823       -2.2349769234
 H          3.4785915481       -0.3885915762       -2.8708613419
 H          4.2011230916       -2.0009158672       -2.8835795910
 C          2.7209206185       -1.6993443502       -1.3551555497
 H          2.9982590888       -2.6455792246       -0.8924352026
 H          1.8462318359       -1.8598865822       -1.9896076556
 H          5.5948486106       -0.3125683943        1.2311647576
 H          6.0376750638       -1.9771734124        1.6108220279
 H          3.6732261035       -2.6732583424        1.0878879480
 H          3.8798153857       -1.6315799313        2.5091900620
 O          2.6342748470        0.2655394822        1.8361175597
 C          1.7829263398        1.3148438432        1.5424227478
 O          1.6562404081        2.1407990713        2.4682954753
 O          0.7823169335        0.2698886958       -1.7869983615
 C          0.2643155983        2.5651641520        0.0545614433
 C         -1.1887784838        2.2102476780        0.2519465735
 C         -1.9249674542        2.7575352066        1.2959769811
 C         -3.2493902929        2.4024905367        1.4896228376
 C         -3.8634990028        1.4876305893        0.6522753744
 C         -3.1307404148        0.9297630251       -0.3866417260
 C         -1.8102953496        1.2988190036       -0.5900182620
 H         -1.2435173730        0.8486431382       -1.3916218567
 N         -3.7302546486       -0.0550594881       -1.2094272121
 S         -3.9428225494       -1.5323290075       -0.4483558809
 O         -4.3450026937       -2.4593735402       -1.4809436307
 O         -4.8644812570       -1.3542032870        0.6444958489
 C         -2.3352289194       -1.9828748401        0.1840156189
 C         -1.8841691689       -1.3928748278        1.3482661560
 C         -0.6205348877       -1.7156610566        1.8150597904
 C          0.1612888229       -2.6251117120        1.1205915890
 C         -0.3039921987       -3.2052704625       -0.0488566958
 C         -1.5601827200       -2.8745969355       -0.5291876811
 H         -1.9602973156       -3.3020467816       -1.4347027189
 H          0.3093753677       -3.9093786008       -0.5874722610
 H          1.1381850383       -2.8813929475        1.4980710184
 H         -0.2473732127       -1.2516360151        2.7150609495
 H         -2.5227785099       -0.7025875069        1.8752683672
 H         -3.2099894883       -0.2089845425       -2.0633338709
 H         -4.8839462790        1.1760442513        0.8046676361
 H         -3.8078038412        2.8378133926        2.3044643233
 H         -1.4464834276        3.4534944392        1.9697690837
 H          0.5391922390        3.2912551160        0.8310317758
 C          0.4933196592        3.2054841267       -1.3013181737
 C          0.0980106162        4.6356232960       -1.5055181393
 C          1.5476473603        4.2594267944       -1.4447848496
 H          2.1286898415        4.2869608349       -2.3544304084
 H          2.1082932510        4.5300829001       -0.5615817326
 H         -0.3193598522        4.9239437808       -2.4580381882
 H         -0.3235505816        5.1636014663       -0.6635064253
 H          0.3600527509        2.5228328062       -2.1299340455
