  62
        -98.94091290
 C         -1.6211812271       -0.0476610203        0.7554671238
 C         -2.8978579131        0.0055085035        1.3716588891
 C         -4.0176589561       -0.5304678599        0.5905229530
 C         -3.7942177236       -1.0239591928       -0.6406477689
 C         -4.8267690528       -1.6273750369       -1.5537646537
 C         -5.6095426144       -0.5963966226       -2.3783659019
 C         -6.6254302685        0.2315055357       -1.5903029835
 H         -7.2493879286        0.7520402370       -2.3196073281
 H         -7.2757097773       -0.4358400680       -1.0237655194
 C         -6.0008693016        1.2686868503       -0.6464443883
 H         -4.9578696961        1.4344413429       -0.9263959626
 H         -6.5179898921        2.2240546747       -0.7613770618
 C         -6.0623579848        0.8961406442        0.8349816397
 H         -5.5601701991        1.6805421554        1.4071369461
 H         -7.1043246375        0.8577996594        1.1604978188
 C         -5.3936581341       -0.4414426218        1.1782517019
 H         -6.0104460294       -1.2702626172        0.8311723513
 H         -5.2970995357       -0.5069732981        2.2648564936
 H         -4.8977626579        0.0714234011       -2.8691293054
 H         -6.1453465110       -1.1421702095       -3.1584340884
 H         -5.5219188229       -2.2327919172       -0.9713867139
 H         -4.2881832110       -2.2812174468       -2.2429687919
 O         -2.5590861785       -1.0436778083       -1.2043496007
 C         -1.4459920891       -0.5368160525       -0.5406523181
 O         -0.3993550272       -0.5915424869       -1.2100064528
 O         -3.0924877780        0.4813858846        2.5220329090
 C         -0.4462511099        0.5227252123        1.5300626898
 C          0.3369211152        1.4664163922        0.6547976766
 C         -0.2732316293        2.6394453869        0.2174023972
 C          0.3984546910        3.5174325018       -0.6102657668
 C          1.6946145275        3.2477099039       -1.0136384503
 C          2.3108135705        2.0782423600       -0.5854475619
 C          1.6328600751        1.1983505093        0.2469082490
 H          2.1201828786        0.2909131010        0.5596052246
 N          3.6038508869        1.7583859648       -1.0126401527
 S          4.6330339967        0.8166121876       -0.1064168248
 O          4.5365515348        1.1204625348        1.3034340694
 O          5.9351756458        1.0316269688       -0.7027407805
 C          4.1370885496       -0.8689224100       -0.3995587700
 C          3.5074235418       -1.2134195306       -1.5781210517
 C          3.1695426007       -2.5402936513       -1.7911703633
 C          3.4731881146       -3.4962409884       -0.8346733946
 C          4.1116971347       -3.1352471482        0.3417297839
 C          4.4465143392       -1.8091292495        0.5638926640
 H          4.9301929022       -1.4822766532        1.4708876881
 H          4.3450298849       -3.8798985804        1.0862399475
 H          3.2068729759       -4.5276098623       -1.0044951693
 H          2.6632946742       -2.8205350905       -2.7008065362
 H          3.2698035862       -0.4501361266       -2.2999084233
 H          4.0797103630        2.4548510931       -1.5647976150
 H          2.2208918809        3.9305249425       -1.6631286091
 H         -0.0877811559        4.4219312550       -0.9440000868
 H         -1.2877350613        2.8482667685        0.5296598048
 H         -0.9131333353        1.1155395097        2.3348021586
 C          0.4238713000       -0.5209216789        2.2134321721
 C         -0.1711355548       -1.7946701256        2.7326379842
 C          0.7759599097       -1.8287478779        1.5726240234
 H          1.7699807201       -2.2208922251        1.7318805036
 H          0.3855270118       -2.0279160687        0.5874233812
 H          0.1672330986       -2.1686861767        3.6871108631
 H         -1.2203073101       -1.9675550347        2.5416036458
 H          1.1935521438       -0.0615063765        2.8277376843
