  62
        -98.94439775
 C         -1.9312363553       -0.8297246592        0.0658318914
 C         -2.4126365852        0.4955435359        0.1900958595
 C         -3.8271847627        0.6270767050        0.5706545020
 C         -4.5571333520       -0.4808505436        0.7946601674
 C         -6.0187791845       -0.4915822134        1.1350282630
 C         -6.8830114325       -0.5843790363       -0.1302527567
 C         -6.4986978978        0.4210304089       -1.2157440485
 H         -5.5012702855        0.1787042566       -1.5897112010
 H         -7.1948204655        0.2851070141       -2.0462826265
 C         -6.5255894936        1.8870337112       -0.7612169408
 H         -7.1135075588        1.9812500861        0.1524853062
 H         -7.0230133562        2.4828271479       -1.5294701029
 C         -5.1449276301        2.5083188595       -0.5409235142
 H         -5.2707794166        3.5896156040       -0.4388190246
 H         -4.5198143695        2.3345614880       -1.4206095918
 C         -4.3817643945        2.0181025224        0.6961843808
 H         -3.5159803367        2.6728338603        0.8338120586
 H         -5.0193313983        2.1019630553        1.5786921144
 H         -6.7830739103       -1.5901192056       -0.5448035776
 H         -7.9265853446       -0.4355839426        0.1529026941
 H         -6.2188910994       -1.3600257960        1.7648464107
 H         -6.2639208291        0.4118724066        1.6899051060
 O         -4.0508490654       -1.7361068631        0.6899666721
 C         -2.7337266976       -1.9430107148        0.3152195409
 O         -2.3987466819       -3.1429987860        0.2486238099
 O         -1.7025330304        1.5164268009       -0.0048821567
 C         -0.4920451542       -1.0785165025       -0.3510046103
 C          0.4477947416       -0.3968255266        0.6129818736
 C          0.3072896680       -0.6567569241        1.9746406029
 C          1.1276572273       -0.0431769535        2.9000234082
 C          2.1163327996        0.8336422672        2.4874001518
 C          2.2707042480        1.0947834661        1.1321159098
 C          1.4434526851        0.4750377561        0.2034554511
 H          1.5770699650        0.7119354715       -0.8381300873
 N          3.2554945638        1.9925283617        0.6889294897
 S          4.2260792052        1.6115205187       -0.6169037790
 O          5.3282813397        2.5439153707       -0.5320066417
 O          3.4632029585        1.6358575638       -1.8378250641
 C          4.7996549311       -0.0408353458       -0.2697132752
 C          5.8460718844       -0.1946695595        0.6191129836
 C          6.2597256033       -1.4734983990        0.9537117100
 C          5.6167618423       -2.5721494619        0.4033122023
 C          4.5688035253       -2.4006748840       -0.4876588612
 C          4.1529864739       -1.1233844814       -0.8299677906
 H          3.3456628100       -0.9509148684       -1.5222057087
 H          4.0712650707       -3.2561313315       -0.9162634618
 H          5.9352822767       -3.5682557431        0.6675259906
 H          7.0778631740       -1.6105009690        1.6423346654
 H          6.3253190142        0.6856077077        1.0160111739
 H          3.8008772226        2.4091016840        1.4293192948
 H          2.7533980929        1.3214853203        3.2094154057
 H          0.9995819009       -0.2489600532        3.9520498805
 H         -0.4673246834       -1.3400917537        2.2960013440
 H         -0.3382249535       -2.1644977975       -0.2695939266
 C         -0.2913431897       -0.6661238472       -1.7939894532
 C          0.7143215643       -1.3752552432       -2.6482746961
 C         -0.7508394104       -1.5857960101       -2.8835978502
 H         -1.2018013053       -1.1557870307       -3.7654025195
 H         -1.1864717007       -2.5285315183       -2.5851617401
 H          1.2770211388       -0.7994482894       -3.3685270958
 H          1.2662413689       -2.1862803845       -2.1971009992
 H         -0.4354096280        0.3970759462       -1.9510620904
