  62
        -98.94372951
 C          1.8535315702        0.9401983732       -0.2157059959
 C          3.1759099201        1.3031371583        0.1332432397
 C          4.2309265903        0.3942875451       -0.3291572031
 C          3.9064722307       -0.6899807245       -1.0571067187
 C          4.8709795509       -1.6964924062       -1.6234304229
 C          5.2806709207       -2.7944216005       -0.6323558986
 C          6.2279380303       -2.3449851764        0.4807896981
 H          6.6014990803       -3.2480868533        0.9676412353
 H          7.0855464004       -1.8335013000        0.0425311758
 C          5.5771596399       -1.4463235117        1.5416931909
 H          4.4900707100       -1.5347193009        1.4761024593
 H          5.8654303997       -1.7907883260        2.5375127560
 C          5.9614726098        0.0302731397        1.4446465422
 H          5.4177295796        0.5774830386        2.2191989299
 H          7.0299500998        0.1439540370        1.6408564542
 C          5.6409222702        0.6794283292        0.0917189015
 H          6.3431562804        0.3340257601       -0.6667245033
 H          5.7442387200        1.7621529176        0.1980242271
 H          4.3772697806       -3.2223633969       -0.1913715250
 H          5.7756983710       -3.5823316022       -1.2047397998
 H          5.7613534710       -1.1854799009       -1.9907630153
 H          4.3666108512       -2.1684786141       -2.4693492599
 O          2.6237859608       -0.9936535998       -1.3878506935
 C          1.5650194806       -0.2042246461       -0.9593429025
 O          0.4446267507       -0.6188223312       -1.3057462388
 O          3.4594933898        2.3351900688        0.7993904846
 C          0.7058195100        1.8226742966        0.2370569264
 C         -0.2742399901        1.0413204244        1.0771582249
 C          0.2057057497        0.1475082108        2.0308817222
 C         -0.6608234205       -0.5938449005        2.8108555313
 C         -2.0303834505       -0.4516912986        2.6692780729
 C         -2.5209906003        0.4465493148        1.7327093657
 C         -1.6470359401        1.1887071962        0.9460889466
 H         -2.0486486500        1.8804552466        0.2217384764
 N         -3.9178922103        0.5996455366        1.5983462575
 S         -4.7898857000       -0.6892144745        0.9772400687
 O         -6.1776645500       -0.2917630056        1.0442982540
 O         -4.4292617501       -1.8850434748        1.6934448816
 C         -4.2851344094       -0.8008035899       -0.7303904828
 C         -5.1625303892       -0.4041803658       -1.7210390073
 C         -4.7400533788       -0.4315643568       -3.0400971376
 C         -3.4472622687       -0.8334280923       -3.3428490830
 C         -2.5762981689       -1.2226427367       -2.3368182883
 C         -2.9990127593       -1.2128518157       -1.0169864683
 H         -2.3341289895       -1.5105092171       -0.2223210724
 H         -1.5588078988       -1.5068419235       -2.5524389121
 H         -3.1132954783       -0.8419664375       -4.3687263130
 H         -5.4144934886       -0.1322016755       -3.8263397235
 H         -6.1536238693       -0.0881216799       -1.4378303331
 H         -4.1818662402        1.4403994137        1.1028415095
 H         -2.7212025506       -1.0341992271        3.2561237743
 H         -0.2681135007       -1.2877599810        3.5390324014
 H          1.2750587296        0.0344269292        2.1484396409
 H          1.1652076798        2.5922849075        0.8759972776
 C          0.0672827403        2.5010842237       -0.9579148440
 C         -0.5437775698        3.8633651717       -0.8228149746
 C          0.7489984504        3.6914205525       -1.5605876767
 H          0.7504215707        3.7969509779       -2.6349701952
 H          1.6586470102        4.0321248558       -1.0879052615
 H         -1.4307701897        4.0909279599       -1.3951946616
 H         -0.5121073702        4.3330732078        0.1488339222
 H         -0.3983479494        1.7939097734       -1.6358314343
