  62
        -98.93947232
 C         -1.4462982633       -1.0806593088        0.0444417920
 C         -2.4063544637       -0.7002282679        1.0083486118
 C         -3.0388307954        0.6165817012        0.8168374377
 C         -2.6558944329        1.3868471809       -0.2160700677
 C         -3.1265053388        2.7741818963       -0.5774925303
 C         -4.6293524236        3.0649715664       -0.4680952064
 C         -5.5454646903        1.8760106249       -0.7927446230
 H         -6.2897513952        2.1913574240       -1.5262701927
 H         -4.9660950390        1.0682574355       -1.2430045312
 C         -6.2913503230        1.3450441470        0.4336976107
 H         -6.6570378261        2.1934500408        1.0164237623
 H         -7.1640736925        0.7801273072        0.0972573465
 C         -5.4810527444        0.4244551125        1.3454373376
 H         -5.3030477882       -0.5305918529        0.8435791067
 H         -6.0843082318        0.2121202085        2.2315078905
 C         -4.1181374412        0.9735642118        1.7980798040
 H         -4.1646436480        2.0450817239        1.9776126340
 H         -3.8507838386        0.4760265451        2.7347128625
 H         -4.8596673795        3.4277494149        0.5326905480
 H         -4.8417755972        3.8861800720       -1.1548075781
 H         -2.5790329259        3.4926582838        0.0400208062
 H         -2.8026840342        2.9237095161       -1.6102795129
 O         -1.7010830682        0.9915650127       -1.1053635831
 C         -1.0828141325       -0.2468589879       -1.0128446855
 O         -0.2485052793       -0.4748487943       -1.9053968876
 H          0.5242884155       -0.6263974871        1.6602057908
 C          1.2261650563       -1.2122060033        1.0788540174
 C          0.7437453698       -2.2153008638        0.2466092387
 C          1.6576998134       -2.9600511529       -0.4863370014
 C          3.0133908575       -2.6909706641       -0.4000030612
 C          3.4865470437       -1.6788824835        0.4137744457
 C          2.5807401238       -0.9351978863        1.1595332539
 N          3.0495576304        0.1133178449        1.9768266418
 S          4.0025735090        1.2649431119        1.2155101924
 O          5.3493798519        0.7635860918        1.1030518319
 O          3.8414177781        2.4693372017        2.0001768771
 C          3.2898175080        1.4686591607       -0.4055618254
 C          3.9545770047        0.9902407342       -1.5153301589
 C          3.3565202437        1.1183077241       -2.7584996999
 C          2.1119399177        1.7168915155       -2.8687556037
 C          1.4581150239        2.1954665505       -1.7444300558
 C          2.0488338283        2.0666670329       -0.4991319210
 H          1.5669860352        2.4274931773        0.3966693099
 H          0.4831460246        2.6473290109       -1.8330438812
 H          1.6402410828        1.8053519035       -3.8343169778
 H          3.8590376454        0.7444098423       -3.6360264659
 H          4.9214328386        0.5321524877       -1.3856693389
 H          2.3148977757        0.5665910155        2.5012501549
 H          4.5368926903       -1.4468566051        0.4831446366
 H          3.7109921002       -3.2742596602       -0.9811702510
 H          1.3089409638       -3.7461104523       -1.1354315940
 C         -0.7491723929       -2.4222409786        0.1759499816
 H         -1.0879656028       -2.8396580106        1.1360280488
 C         -1.1804172732       -3.3514726359       -0.9393023846
 C         -1.2078096992       -4.8343084704       -0.7234177832
 C         -2.4912896388       -4.0668112452       -0.8170716204
 H         -3.1010347062       -4.1825805273       -1.7006099935
 H         -3.0605299421       -3.9067932386        0.0871741588
 H         -0.9384579058       -5.4805296990       -1.5451770151
 H         -0.9094435295       -5.2048672632        0.2456042418
 H         -0.9028658756       -2.9794030776       -1.9191782807
 O         -2.7118972293       -1.4197665646        1.9982027672
