  62
        -98.93901424
 C          1.2603057594        1.2813255921       -0.2164414713
 C          2.3801478873        1.3169627056        0.6517838980
 C          3.2215755317        0.1122417202        0.6814619208
 C          2.8744087506       -0.9446552321       -0.0754829454
 C          3.6704375258       -2.2111005756       -0.2164861593
 C          4.8744470769       -1.9743800671       -1.1507081156
 C          6.2367126152       -2.1008629320       -0.4687146680
 H          6.4564935625       -3.1582049011       -0.3063756558
 H          6.9865022831       -1.7118000171       -1.1609779018
 C          6.3790697509       -1.3811714191        0.8759387468
 H          7.4470394845       -1.3327585270        1.0992217548
 H          5.9243819142       -1.9824277886        1.6646826531
 C          5.7975550356        0.0369139505        0.9429342780
 H          6.4741765234        0.6530756471        1.5387210071
 H          5.7555462830        0.4832667545       -0.0508549642
 C          4.4093130182        0.1294808185        1.6035870743
 H          4.3064257880       -0.6650568937        2.3478771364
 H          4.3385551690        1.0845933679        2.1324055226
 H          4.7776052421       -0.9792564538       -1.5896198908
 H          4.8399534675       -2.6861561927       -1.9768222160
 H          4.0060731076       -2.5469296448        0.7621471879
 H          3.0099919227       -2.9674845698       -0.6396212363
 O          1.7794591156       -0.9506929591       -0.8762793141
 C          0.9413609920        0.1501379599       -0.9686465408
 O         -0.0188900097       -0.0109980802       -1.7443621867
 H         -1.9545988965        1.4999742941       -1.3332265413
 C         -2.0056558118        1.6033475627       -0.2612505682
 C         -0.9296697463        2.1348668166        0.4334924919
 C         -1.0138107603        2.2310806430        1.8195229377
 C         -2.1457139396        1.8067950596        2.4908475163
 C         -3.2106989066        1.2594174179        1.7958621845
 C         -3.1284489668        1.1471319841        0.4146296953
 N         -4.1893493812        0.5450489949       -0.2986959907
 S         -4.4768863754       -1.0678212134        0.0546987147
 O         -5.3572223341       -1.5399972483       -0.9899775459
 O         -4.9835519471       -1.1625345542        1.4010214577
 C         -2.8961491251       -1.8862828802       -0.0572300562
 C         -2.0508351302       -1.8738711431        1.0338531744
 C         -0.8102736629       -2.4799528203        0.9238483771
 C         -0.4406541847       -3.0876007300       -0.2652653750
 C         -1.2983842192       -3.0864093687       -1.3529373962
 C         -2.5363485273       -2.4747346241       -1.2521492735
 H         -3.2332287298       -2.4519679340       -2.0747926669
 H         -1.0010207609       -3.5491463081       -2.2802042829
 H          0.5265419262       -3.5578667011       -0.3465411140
 H         -0.1329665792       -2.4696073648        1.7636921355
 H         -2.3737028615       -1.3990347258        1.9461498080
 H         -4.0820974267        0.6389804477       -1.2997133050
 H         -4.0895879983        0.8950260036        2.3027037880
 H         -2.1983840414        1.8949220493        3.5655721760
 H         -0.1707366428        2.6291727430        2.3665489750
 C          0.3572054422        2.5042576682       -0.2594107188
 H          0.8671618869        3.2654508512        0.3454349632
 C          0.1682538219        3.0414811905       -1.6620416842
 C         -0.4224431163        4.4064920133       -1.8467203659
 C          1.0290559550        4.1723649287       -2.1358343416
 H          1.3573497250        4.1732156521       -3.1644894831
 H          1.7583146380        4.5701252045       -1.4454265376
 H         -1.0926941332        4.5718592308       -2.6763577050
 H         -0.6795406539        4.9614546678       -0.9571477262
 H         -0.0833248786        2.2784582712       -2.3879858750
 O          2.6633323462        2.3141554296        1.3684525826
