  62
        -98.93762630
 C          1.7012134560        0.3439971693        0.5201884240
 C          2.9185074297        0.2956441902        1.2344787769
 C          4.1576233647        0.4904426253        0.4562900934
 C          4.0605141526        0.7046982703       -0.8693168313
 C          5.1747353883        0.8842011120       -1.8658285148
 C          5.8659561068       -0.4412161218       -2.2259496842
 C          6.1579208798       -1.3580995859       -1.0408644702
 H          5.2245163015       -1.5778533089       -0.5192921433
 H          6.5369153670       -2.3036425872       -1.4378614451
 C          7.1841796135       -0.8264139852       -0.0432319408
 H          7.3520556954       -1.6110941889        0.6990924174
 H          8.1301458554       -0.6524407200       -0.5610570489
 C          6.7947501180        0.4536206302        0.6987639835
 H          6.9136047211        1.3264751197        0.0625914088
 H          7.4984342446        0.5757679460        1.5275070526
 C          5.3988898765        0.4349837479        1.3141703095
 H          5.2942687712       -0.4608052198        1.9371495803
 H          5.3140730455        1.2790008126        2.0095919772
 H          5.2134959838       -0.9854784960       -2.9130660759
 H          6.7952042612       -0.2146397355       -2.7513449562
 H          4.7223303522        1.2962210802       -2.7704508088
 H          5.8934980393        1.6090780926       -1.4954609637
 O          2.8604649522        0.7452466776       -1.5161271930
 C          1.6593643662        0.5663337091       -0.8556192372
 O          0.6524354875        0.6292957092       -1.5852461879
 O          2.9774092999        0.0861685571        2.4773081203
 C          0.3960711369        0.1397513999        1.2669717169
 C         -0.3407964340       -1.0462533267        0.6965526097
 C          0.3409204665       -2.2515297273        0.5436822247
 C         -0.2893765737       -3.3559817664        0.0061554858
 C         -1.6156811752       -3.2859458129       -0.3838341408
 C         -2.3082012490       -2.0919453415       -0.2279712763
 C         -1.6707276542       -0.9835634027        0.3144432494
 H         -2.2254182492       -0.0689300260        0.4333418260
 N         -3.6399431594       -1.9820163124       -0.6452997240
 S         -4.7238600533       -0.9863492616        0.1391786642
 O         -4.5308035347       -1.0067638486        1.5706033064
 O         -6.0203336438       -1.4311085855       -0.3268640800
 C         -4.4048307205        0.6442653568       -0.5002254261
 C         -4.0778596059        0.7961508904       -1.8327004656
 C         -3.8555499717        2.0722602685       -2.3246700206
 C         -3.9696970529        3.1687027876       -1.4838164410
 C         -4.3067806235        3.0001059817       -0.1497988385
 C         -4.5283098858        1.7262853220        0.3489251138
 H         -4.7826692147        1.5466421571        1.3817088462
 H         -4.3947421773        3.8546690663        0.5023645607
 H         -3.7921708868        4.1601901325       -1.8697833997
 H         -3.5880187638        2.2068016941       -3.3603759804
 H         -3.9881684025       -0.0760002032       -2.4584673528
 H         -4.0651159680       -2.8326298820       -0.9819749223
 H         -2.1083571590       -4.1466524895       -0.8098920128
 H          0.2537815501       -4.2819420887       -0.1099931311
 H          1.3775031546       -2.3067363982        0.8477870440
 H          0.6835244489       -0.1003361872        2.3016616292
 C         -0.4143902715        1.4185551723        1.2701767843
 C         -1.3824954665        1.6962825885        2.3796727124
 C         -0.1031549383        2.4710958888        2.2899686793
 H         -0.1475105641        3.5074004517        1.9910311694
 H          0.6794160352        2.2547781695        3.0025519061
 H         -2.3058246082        2.2012708326        2.1404246264
 H         -1.4786121587        0.9538346030        3.1576452534
 H         -0.6725550027        1.7509064795        0.2705683302
