  62
        -98.94415165
 C          1.8560351379        1.3444312465        0.1229864644
 C          2.0422742791        0.3642453249       -0.8817665716
 C          3.3957888475       -0.2031222661       -0.9859074963
 C          4.3629001625        0.2203129413       -0.1531464018
 C          5.7640921556       -0.3151695387       -0.1160856285
 C          5.8887604384       -1.4801318405        0.8758390816
 C          4.8110376312       -2.5515827384        0.7096336025
 H          3.8395136511       -2.1236246814        0.9683117954
 H          5.0184543657       -3.3376017801        1.4390773281
 C          4.7366095065       -3.1649293486       -0.6957305936
 H          4.6465125267       -4.2490987498       -0.6001192591
 H          5.6616477819       -2.9638730633       -1.2372994227
 C          3.5467271003       -2.6911619951       -1.5324125798
 H          2.6260584428       -2.8038461576       -0.9537383496
 H          3.4650081287       -3.3431270257       -2.4063407973
 C          3.6242669201       -1.2468259537       -2.0433873475
 H          2.8250270101       -1.1113167238       -2.7777564247
 H          4.5809060513       -1.0852688128       -2.5439714557
 H          5.8197375062       -1.0805946414        1.8903081943
 H          6.8749592083       -1.9320764442        0.7553382764
 H          6.0499428888       -0.6417968320       -1.1140749232
 H          6.4309307838        0.4896840488        0.1977310669
 O          4.1527928699        1.1681568028        0.7941642439
 C          2.9064709215        1.7448747086        0.9572298366
 O          2.8569876510        2.5999032919        1.8637998518
 H         -0.4449661329       -0.3864787031       -0.2671837959
 C         -0.8420233201       -0.0313701958        0.6723459002
 C         -0.4298059922        1.1999917029        1.1616432323
 C         -0.9534825858        1.6407394968        2.3710632494
 C         -1.8667757947        0.8689302703        3.0692049235
 C         -2.2736806173       -0.3590400666        2.5782189694
 C         -1.7480984675       -0.8104982569        1.3752038980
 N         -2.1677398743       -2.0578344967        0.8549676708
 S         -3.7650843700       -2.0829586496        0.3430118339
 O         -4.6238295426       -2.0057168906        1.4973014024
 O         -3.9008547589       -3.2644114322       -0.4781315606
 C         -3.9291628864       -0.6087939769       -0.6463591793
 C         -4.3307126007        0.5674641079       -0.0460455163
 C         -4.3672714219        1.7258114980       -0.8049890657
 C         -4.0013834449        1.6876568169       -2.1415303996
 C         -3.5965815757        0.4989480606       -2.7287121881
 C         -3.5530013517       -0.6613989094       -1.9734265879
 H         -3.2454510850       -1.6062443391       -2.3927083690
 H         -3.3080050338        0.4736359878       -3.7673868195
 H         -4.0340230977        2.5896327450       -2.7327132105
 H         -4.6756456886        2.6534027847       -0.3504759207
 H         -4.6101808554        0.5535984657        0.9945737111
 H         -1.5805545378       -2.3693458578        0.0927353104
 H         -2.9951518557       -0.9677645901        3.0989573591
 H         -2.2653209215        1.2264809834        4.0064262689
 H         -0.6332774398        2.5927868801        2.7684572910
 C          0.5330942865        2.0535180596        0.3723133433
 H          0.7836209464        2.9298996606        0.9844108849
 C         -0.1306078874        2.5365987016       -0.9043412511
 C         -1.0600260102        3.7088458839       -0.8393968414
 C          0.2826104288        3.8515807672       -1.4899258750
 H          0.3323942803        3.9434327512       -2.5643884753
 H          1.0467419300        4.4112417825       -0.9696457644
 H         -1.2079459588        4.1776759521        0.1214437417
 H         -1.9366512937        3.7022837971       -1.4672388822
 H         -0.3719987624        1.7378694224       -1.5930147844
 O          1.1410485249       -0.0402404748       -1.6657438122
