  62
        -98.93017309
 C         -2.4303838872        0.9161424987       -0.5586267147
 C         -2.8257665561       -0.3636025566       -1.0189947223
 C         -4.2231301189       -0.7730563871       -0.7830229811
 C         -5.0479548366        0.0883032927       -0.1595417716
 C         -6.4887367706       -0.1137566823        0.2276182943
 C         -6.6479327733       -1.0147729411        1.4633114532
 C         -5.7609338250       -2.2571660473        1.4727014279
 H         -4.7156478407       -1.9527560777        1.3917955259
 H         -5.8819705680       -2.7440346873        2.4440263184
 C         -6.0741887488       -3.2890815727        0.3918720212
 H         -7.1079488823       -3.6234151758        0.5046972689
 H         -5.4250869722       -4.1506509751        0.5682160287
 C         -5.8685990218       -2.8286704422       -1.0526291443
 H         -6.6849191289       -2.1909405135       -1.3808091026
 H         -5.8976234327       -3.7204544760       -1.6856550328
 C         -4.5289731964       -2.1498861799       -1.3215978497
 H         -3.7193752840       -2.7979095108       -0.9666360437
 H         -4.3844899443       -2.0803382432       -2.4068011346
 H         -7.6951402444       -1.3115288125        1.5413307513
 H         -6.3976994328       -0.4221604664        2.3465323560
 H         -7.0492398817       -0.5073078284       -0.6151299392
 H         -6.8911343254        0.8738351309        0.4633391910
 O         -4.6288859355        1.3143004128        0.2601983473
 C         -3.3284543656        1.7638922237        0.0905244100
 O         -3.1299427176        2.9016016402        0.5526744014
 O         -2.0357241712       -1.1481205035       -1.6136024515
 C         -0.9867004380        1.3104747746       -0.8068051527
 C         -0.0985174631        0.9258284988        0.3485960491
 C         -0.4485239902        1.2133051821        1.6643637623
 C          0.3986028153        0.8737484095        2.7034636256
 C          1.6135769717        0.2607364163        2.4521634146
 C          1.9683732927       -0.0381065605        1.1419773849
 C          1.1067663925        0.2858756943        0.1028853654
 H          1.3893128249        0.0333099712       -0.9085889203
 N          3.1840430723       -0.6752563204        0.8504676620
 S          3.9852209831       -0.2251668670       -0.5679665134
 O          3.9184272125        1.2087202898       -0.7346977962
 O          3.4791731797       -1.0183892213       -1.6597595450
 C          5.6490126679       -0.7316595436       -0.1772103640
 C          5.9831920448       -2.0662785643       -0.3112006137
 C          7.2658850463       -2.4715603832        0.0215005646
 C          8.1871769492       -1.5415293738        0.4804039349
 C          7.8375988688       -0.2055914358        0.6074913785
 C          6.5559012220        0.2067149627        0.2777690280
 H          6.2414035144        1.2352726922        0.3528275037
 H          8.5571233429        0.5151857770        0.9610425557
 H          9.1849783082       -1.8597791394        0.7379590903
 H          7.5423484269       -3.5087097658       -0.0789546211
 H          5.2366319296       -2.7500757638       -0.6805230800
 H          3.8093468422       -0.7177949476        1.6435729093
 H          2.2783764327        0.0086149643        3.2642995288
 H          0.1155745939        1.1027572054        3.7199445265
 H         -1.3843450382        1.7149768415        1.8606147454
 H         -0.6727967695        0.7017821023       -1.6710312888
 C         -0.8145940349        2.7705284119       -1.2027830910
 C         -0.2172685921        3.8080268068       -0.3055821880
 C          0.5529854475        3.3166403365       -1.4922775018
 H          0.6751767221        3.9749543356       -2.3394151028
 H          1.4032545964        2.6736154142       -1.3116430071
 H         -0.6458799011        4.7980304818       -0.3333192938
 H          0.1110255911        3.5051590416        0.6760193703
 H         -1.6171011208        3.1063837489       -1.8524721864
