  62
        -98.94331318
 C         -1.4398168993       -1.4990405713       -0.9092125293
 C         -2.6312173294       -1.2805129715       -0.1709816695
 C         -3.3598731500       -0.0375659719       -0.4470437300
 C         -2.8811890103        0.8092042679       -1.3757264704
 C         -3.5022434009        2.1255131074       -1.7426864209
 C         -2.9030625014        3.2749722581       -0.9218626214
 C         -2.8557606313        3.0033099687        0.5818575787
 H         -2.1330400510        2.2062106691        0.7752346791
 H         -2.4595323918        3.9027333291        1.0597842383
 C         -4.2105913512        2.6459285384        1.2093600888
 H         -4.3138691315        3.1970982987        2.1466193486
 H         -5.0190103313        2.9695139877        0.5521703887
 C         -4.3912772205        1.1638744184        1.5444019594
 H         -5.2636831005        1.0670832483        2.1966149795
 H         -3.5212123404        0.8097042691        2.1042344896
 C         -4.6063931201        0.2285475478        0.3477246598
 H         -5.3987454703        0.6234137172       -0.2916299003
 H         -4.9276482797       -0.7424172221        0.7362533802
 H         -3.4865402918        4.1778453177       -1.1143427018
 H         -1.8791318115        3.4492036584       -1.2609815215
 H         -3.3131767010        2.3110666871       -2.8016894110
 H         -4.5770330909        2.0706169970       -1.5796565409
 O         -1.7466060902        0.5659760681       -2.0727950602
 C         -0.9679516597       -0.5604152515       -1.8260636297
 O          0.0781080803       -0.5901846913       -2.5004233897
 O         -3.0686500991       -2.1028725513        0.6800346109
 C         -0.6594721787       -2.7548271308       -0.5547997988
 C          0.1311150911       -2.4925097299        0.7032387311
 C          0.1034514215       -3.3700626394        1.7790779915
 C          0.7777753213       -3.0619958286        2.9482391514
 C          1.4630919108       -1.8676694283        3.0730513409
 C          1.5002489204       -0.9832093187        1.9983774005
 C          0.8654908906       -1.3199892595        0.8138458006
 H          0.8950581503       -0.6371364699       -0.0181826597
 N          2.1807950699        0.2346197316        2.1016332300
 S          1.7742262993        1.6069051711        1.2264476194
 O          2.1014052788        2.7006012216        2.1192392789
 O          0.4155008793        1.5645488703        0.7457476494
 C          2.9638028093        1.5945161210       -0.0989409806
 C          4.2509140891        1.9871540718        0.2204648493
 C          5.2257781891        1.9706347118       -0.7620540907
 C          4.9009660794        1.5604507411       -2.0469198105
 C          3.6068131095        1.1715831304       -2.3520670304
 C          2.6244824595        1.1873367003       -1.3722900404
 H          1.6150562797        0.8809464498       -1.6008027003
 H          3.3440225097        0.8489680498       -3.3468697902
 H          5.6584547394        1.5449124311       -2.8146856805
 H          6.2323943490        2.2756155823       -0.5255014908
 H          4.4548889789        2.3107763423        1.2276574092
 H          2.5108683297        0.4636587922        3.0268900599
 H          1.9589532606       -1.6123542377        3.9972113008
 H          0.7490180416       -3.7482760883        3.7810513417
 H         -0.4712776681       -4.2815932897        1.7065711419
 H         -1.4244353184       -3.5089256110       -0.3065173585
 C          0.1821859415       -3.3158252409       -1.6887925785
 C          1.6722918415       -3.1909951002       -1.7443367786
 C          1.0459327821       -4.5196551104       -1.4522982880
 H          1.0797869924       -5.2875494707       -2.2100248477
 H          1.1142336822       -4.8908607199       -0.4408742078
 H          2.1220737714       -3.0255481405       -2.7109658986
 H          2.1705350312       -2.6720020597       -0.9402444488
 H         -0.3382678385       -3.2676697415       -2.6394849186
