  62
        -98.94319371
 C          0.7736366997        1.7772349502       -0.2269356505
 C          2.0664413000        1.8175845009        0.3369495788
 C          3.0134899601        0.7778863611       -0.1056604013
 C          2.5877212201       -0.1604362693       -0.9698037608
 C          3.3317214303       -1.3752219192       -1.4540700008
 C          3.0979318312       -2.5659651490       -0.5056176003
 C          4.1302356018       -2.7092786482        0.6098428893
 H          3.8177452124       -3.5509128082        1.2325978397
 H          5.1027399017       -2.9574469280        0.1786783889
 C          4.2767474318       -1.4728638079        1.4986429788
 H          3.2845416617       -1.0760581782        1.7259041692
 H          4.7218086023       -1.7875306974        2.4448298187
 C          5.1520293710       -0.3776773178        0.8729199481
 H          5.6817865808       -0.7867253878        0.0130289179
 H          5.9163467813       -0.0711745272        1.5905985876
 C          4.4015714604        0.8945561418        0.4655124680
 H          4.2844522605        1.5384463821        1.3434504979
 H          5.0162695498        1.4543558818       -0.2487750324
 H          3.0977208713       -3.4890252192       -1.0898651500
 H          2.1084093814       -2.4581146992       -0.0511377999
 H          4.3916904302       -1.1657484088       -1.5642977513
 H          2.9195888400       -1.6192956696       -2.4351838905
 O          1.3327271898       -0.1561034900       -1.4995971402
 C          0.4006392296        0.8059167498       -1.1565706201
 O         -0.6975923306        0.6934417992       -1.7319617695
 O          2.4154950300        2.6824269313        1.1890339184
 C         -0.2640001605        2.7842246300        0.2257268396
 C         -1.5085875400        2.0966059096        0.7350239904
 C         -2.7550063002        2.7136738992        0.7194806008
 C         -3.8739276397        2.0509536689        1.1923920315
 C         -3.7853619390        0.7509572491        1.6569813519
 C         -2.5446799988        0.1246602495        1.6729123815
 C         -1.4192747592        0.8112034798        1.2493410308
 H         -0.4637454990        0.3117081702        1.2959303605
 N         -2.3996752181       -1.2063385903        2.1033773419
 S         -1.4222475181       -2.2516245002        1.2422903717
 O         -1.8157718573       -3.5650372402        1.7156222323
 O         -0.0311427881       -1.9230980996        1.4368599310
 C         -1.8528285489       -2.1266033509       -0.4855557481
 C         -0.8925952692       -2.4932560308       -1.4047420384
 C         -1.2028074099       -2.4681316713       -2.7535045583
 C         -2.4677723102       -2.0791896319       -3.1611590478
 C         -3.4254353199       -1.7222579720       -2.2266105775
 C         -3.1214867392       -1.7505692715       -0.8753239776
 H         -3.8568571690       -1.4695980115       -0.1397413874
 H         -4.4085273602       -1.4142906225       -2.5449557571
 H         -2.7055040507       -2.0484870724       -4.2129235477
 H         -0.4523969201       -2.7405753213       -3.4784981086
 H          0.0860361711       -2.7746592303       -1.0507889288
 H         -3.2571953778       -1.6629793805        2.3791660424
 H         -4.6629600987        0.2258172988        2.0030055625
 H         -4.8326493099        2.5464150285        1.1810883418
 H         -2.8483351608        3.7157955390        0.3336106105
 H          0.1990897697        3.3314295604        1.0613491092
 C         -0.5662811614        3.7683610095       -0.8892143105
 C         -0.8345889818        5.2118312595       -0.5868977209
 C          0.4572226081        4.8087440598       -1.2296141013
 H          0.6200373175        5.0531707195       -2.2684893615
 H          1.3560301183        4.8287262603       -0.6304804618
 H         -1.5609075023        5.7377555690       -1.1881894007
 H         -0.8048086314        5.5230472998        0.4465752390
 H         -1.1033247716        3.3069222590       -1.7104080501
