  62
        -98.93849704
 C         -1.9039895786       -1.1583711316       -0.0490912538
 C         -2.4613842612       -0.4073601288        1.0173136631
 C         -3.0804924044        0.8856001494        0.6843497277
 C         -3.0931042118        1.2946263976       -0.5976639819
 C         -3.5907864667        2.5751434181       -1.2351494214
 C         -4.4657715846        3.5489557205       -0.4504887403
 C         -5.8680287929        3.0313034924       -0.1308457335
 H         -6.3600329016        3.7569065874        0.5202874921
 H         -6.4378398728        2.9791130127       -1.0619579133
 C         -5.9282457608        1.6534982498        0.5235443068
 H         -6.9811748500        1.4022052814        0.6764742582
 H         -5.5141495090        0.9064524855       -0.1566300978
 C         -5.2232388740        1.5401817800        1.8734119424
 H         -5.4753557769        0.5639639817        2.2958317668
 H         -5.6029651447        2.3064547781        2.5518641007
 C         -3.6891104893        1.6427068959        1.8300338537
 H         -3.2938783084        1.1849554430        2.7414650221
 H         -3.3617027520        2.6797588541        1.8185024126
 H         -4.5766685455        4.4393568425       -1.0753129449
 H         -3.9562736705        3.8630222759        0.4557420788
 H         -2.6888691432        3.1040711681       -1.5644935416
 H         -4.1178218330        2.2719471920       -2.1457124605
 O         -2.5531847699        0.5354198884       -1.5936791023
 C         -1.9315823448       -0.6786888602       -1.3567346165
 O         -1.4720318762       -1.2044234626       -2.3927743321
 O         -2.4349389175       -0.8035565504        2.2132506734
 C         -1.2123312393       -2.4587450075        0.3301383821
 C          0.2617539866       -2.1909787091        0.5184159327
 C          0.8770867765       -2.3573971330        1.7533304682
 C          2.2134623998       -2.0397037014        1.9256064838
 C          2.9563425860       -1.5284097783        0.8757251657
 C          2.3465222233       -1.3544694573       -0.3590402467
 C          1.0191269204       -1.7041359716       -0.5380210980
 H          0.5550618634       -1.5523636110       -1.5017433446
 N          3.0817840011       -0.7496424805       -1.4155458952
 S          3.0180159786        0.9355551560       -1.3042596010
 O          1.7081737102        1.3916595904       -0.8887363867
 O          3.4927639489        1.4331758101       -2.5771635978
 C          4.2120923179        1.2886264578       -0.0342832243
 C          3.7747459761        1.6231398906        1.2321598290
 C          4.7143926613        1.8639752828        2.2222947734
 C          6.0662461057        1.7657818464        1.9292447507
 C          6.4887728149        1.4306145153        0.6512287678
 C          5.5546674932        1.1873024052       -0.3431189954
 H          5.8347597998        0.9280090958       -1.3505123680
 H          7.5407819069        1.3567532450        0.4277907276
 H          6.7945614006        1.9523690717        2.7025696491
 H          4.3868160970        2.1237757302        3.2160623661
 H          2.7130856392        1.6840615804        1.4127581464
 H          2.7134666659       -1.0048768497       -2.3233591582
 H          3.9934909570       -1.2642639482        1.0023941888
 H          2.6774147685       -2.1774851591        2.8899786877
 H          0.2922592756       -2.7173587976        2.5870017106
 H         -1.6309946029       -2.7371472149        1.3065676272
 C         -1.4495351466       -3.5988892469       -0.6384456771
 C         -1.2514633432       -5.0059955082       -0.1626080257
 C         -2.6328676286       -4.4960567498       -0.4408739327
 H         -3.1539449689       -4.8576479267       -1.3145116528
 H         -3.2803275832       -4.2911294525        0.3991674741
 H         -0.8206416452       -5.7227553998       -0.8445029529
 H         -0.9633618013       -5.1493805555        0.8676362696
 H         -1.1693972231       -3.3662121427       -1.6574194502
