  62
        -98.93988883
 C         -2.7405721600       -0.7102489106        0.1149528908
 C         -2.8785765882        0.2945764222        1.1018430782
 C         -3.3510937656        1.6020509242        0.6287285120
 C         -3.6269827991        1.7672844016       -0.6781454536
 C         -4.0575384389        3.0607268477       -1.3058145940
 C         -2.8472709845        3.8613867090       -1.8072059368
 C         -1.7268320838        3.9972007769       -0.7760035243
 H         -1.3019689622        3.0096387426       -0.5804086393
 H         -0.9382741705        4.6011663522       -1.2299522495
 C         -2.1604022592        4.6356949255        0.5511910107
 H         -1.4120230302        5.3745017615        0.8452417342
 H         -3.1035509074        5.1660391667        0.4158142054
 C         -2.2967861322        3.6533133114        1.7161859552
 H         -2.3933565310        4.2313557919        2.6391157659
 H         -1.3856948550        3.0548347734        1.8007492356
 C         -3.4951143545        2.6978539959        1.6473255181
 H         -3.5776559777        2.1979171662        2.6169151947
 H         -4.4106846669        3.2670878205        1.4757213685
 H         -3.1896658283        4.8531285070       -2.1076719290
 H         -2.4415712947        3.3593499082       -2.6884780419
 H         -4.6171303186        3.6442115245       -0.5774260375
 H         -4.7073157079        2.8323933879       -2.1521781603
 O         -3.4901117277        0.7766447983       -1.5952901270
 C         -3.0231774727       -0.4782520251       -1.2316183099
 O         -2.9111144657       -1.2769575196       -2.1794667943
 O         -2.6084759879        0.1098476018        2.3205966526
 C         -2.2186140499       -2.0749725784        0.5285462311
 C         -0.8751290911       -2.3154127004       -0.1169330799
 C         -0.5716828776       -3.4347046696       -0.8788891849
 C          0.6838651320       -3.5750425674       -1.4465290762
 C          1.6602078857       -2.6128785322       -1.2673822700
 C          1.3731553622       -1.4966528521       -0.4915546375
 C          0.1161589188       -1.3598763517        0.0761228268
 H         -0.1083021063       -0.4890714665        0.6812249705
 N          2.3559935570       -0.4961749330       -0.3057895182
 S          3.7622084998       -0.9336494890        0.5264682002
 O          4.3172709077       -2.1153552927       -0.0791792770
 O          3.4915443393       -1.0102268533        1.9476011525
 C          4.7958594563        0.4744246996        0.1789030050
 C          4.9623305394        1.4550338461        1.1371435942
 C          5.7492460012        2.5566891248        0.8391916316
 C          6.3496207411        2.6590135889       -0.4063562246
 C          6.1721170028        1.6659869999       -1.3585344359
 C          5.3875027173        0.5620301697       -1.0664722015
 H          5.2275683116       -0.2359779621       -1.7723162194
 H          6.6419206445        1.7489558742       -2.3252978339
 H          6.9612655592        3.5172632687       -0.6357281390
 H          5.8902273184        3.3288971017        1.5782888583
 H          4.4829568587        1.3305045749        2.0949947353
 H          1.9656363856        0.3075844034        0.1704478362
 H          2.6406425897       -2.7216417417       -1.6998746128
 H          0.9030745169       -4.4470534070       -2.0440286044
 H         -1.3190085585       -4.1948426149       -1.0358345247
 H         -2.0615882029       -2.0092952960        1.6159159266
 C         -3.2393020150       -3.1565176503        0.2504087815
 C         -3.2268872624       -4.4222607723        1.0526549382
 C         -4.3146453418       -3.4132003319        1.2616719170
 H         -5.3089127949       -3.6435370580        0.9097247144
 H         -4.2981082425       -2.8214859083        2.1654688779
 H         -3.4765684807       -5.3488569695        0.5584440768
 H         -2.4721698070       -4.5206835661        1.8184665432
 H         -3.5139763091       -3.2141567959       -0.7964569041
