  62
        -98.93436610
 C         -1.6970423908       -0.0452506392       -0.8957263606
 C         -2.9034062506        0.6923140410       -0.8372665602
 C         -4.1221246707       -0.0696489188       -0.5045565801
 C         -4.0396593309       -1.3870328188       -0.2568038104
 C         -5.1472801611       -2.3573867587        0.0698549596
 C         -6.2316401508       -1.8946612087        1.0523547399
 C         -5.7448534303       -0.9453130490        2.1568933601
 H         -6.0766920602       -1.3269771792        3.1243131300
 H         -4.6539240203       -0.9186689093        2.1741477398
 C         -6.2868282801        0.4778112711        2.0029433905
 H         -7.3437672701        0.4232599414        1.7328633007
 H         -6.2223903297        0.9847170109        2.9688365906
 C         -5.5548451501        1.3504198712        0.9842997906
 H         -4.5579906799        1.5988131609        1.3584502604
 H         -6.1040788099        2.2903303313        0.8895840609
 C         -5.3875958005        0.7344830215       -0.4144273796
 H         -6.2583476007        0.1461252217       -0.6928945596
 H         -5.2772788105        1.5532831016       -1.1305001094
 H         -7.0408376808       -1.4149759484        0.5035058602
 H         -6.6508487009       -2.7949544887        1.5049681098
 H         -5.6213315314       -2.6597734784       -0.8685557004
 H         -4.6413779312       -3.2383618089        0.4721730593
 O         -2.8541709111       -2.0577533191       -0.3083131208
 C         -1.6721196210       -1.4169567493       -0.6254932109
 O         -0.6747393612       -2.1661422595       -0.6395352013
 H          2.0679907194        0.0416325398       -0.1859747514
 C          1.5717816797        0.8439391498        0.3383746289
 C          0.2983022597        1.2326592802       -0.0500065607
 C         -0.3335802500        2.2546196901        0.6500512397
 C          0.3010430204        2.8654620497        1.7159061997
 C          1.5814698304        2.4915006694        2.0851033893
 C          2.2239424400        1.4760632994        1.3874131589
 N          3.5204521000        1.0689736890        1.7323394686
 S          4.6164199497        0.6776737191        0.5284153182
 O          5.9122308298        0.8634028186        1.1457124580
 O          4.3720260796        1.4324434694       -0.6779921015
 C          4.3620947292       -1.0591256308        0.2362951979
 C          4.1549566389       -1.5127808205       -1.0509732222
 C          3.9791909085       -2.8706719404       -1.2641324625
 C          4.0156398885       -3.7468537506       -0.1908113727
 C          4.2287414089       -3.2759625910        1.0959641574
 C          4.4052439993       -1.9195442511        1.3151906477
 H          4.5760456596       -1.5170276613        2.2996738877
 H          4.2553236190       -3.9620842012        1.9271814672
 H          3.8754145183       -4.8028441406       -0.3595882929
 H          3.8106133682       -3.2382250201       -2.2637648925
 H          4.1286664688       -0.7962006403       -1.8573262520
 H          3.9509193703        1.6005332987        2.4749268086
 H          2.0811373407        2.9815977591        2.9071073993
 H         -0.2008329993        3.6534722197        2.2571979700
 H         -1.3220715199        2.5652021204        0.3488107199
 C         -0.3486821807        0.5646699206       -1.2398948707
 H          0.2916633390       -0.2808745395       -1.5264694811
 C         -0.3979418108        1.5386542409       -2.4035303405
 C          0.8886446892        1.9402662407       -3.0580330207
 C         -0.0779417312        1.0536988211       -3.7835290607
 H         -0.6297784413        1.4650265314       -4.6154937205
 H          0.1756686286        0.0099892811       -3.9009855010
 H          1.8040758492        1.5100310004       -2.6778763010
 H          0.9974818793        2.9613943108       -3.3907651605
 H         -1.1671050906        2.2922912510       -2.3000881701
 O         -2.9938104204        1.9298941211       -1.0547591398
