  62
        -98.93627598
 C         -1.2483571699       -1.2619936506        0.2290840699
 C         -2.0825777600       -0.6579642810        1.2011415602
 C         -2.8547865601        0.5243419191        0.7797653506
 C         -2.6973755101        1.0006954396       -0.4687930592
 C         -3.3352642401        2.1771973999       -1.1775827687
 C         -4.5392899602        2.8950368495       -0.5739239184
 C         -5.8277515702        2.0727793694       -0.5507840488
 H         -6.1827184101        1.9552821298       -1.5778503889
 H         -6.5845198402        2.6365380991       -0.0009868786
 C         -5.7100443401        0.6768882292        0.0560694906
 H         -5.0188938600        0.0754215895       -0.5380997896
 H         -6.6911275200        0.1987916791       -0.0117263596
 C         -5.2739837201        0.6350311386        1.5192342706
 H         -5.3781042200       -0.3972154616        1.8652368702
 H         -5.9416156002        1.2558889383        2.1198692908
 C         -3.8235668701        1.0703069286        1.7888348908
 H         -3.5225471101        0.6588387782        2.7568322607
 H         -3.7419785202        2.1523757886        1.8555338613
 H         -4.7230684803        3.7741034298       -1.1976803981
 H         -4.3006350203        3.2602386191        0.4205455617
 H         -3.5998169901        1.8151395403       -2.1763273289
 H         -2.5335358202        2.9089922500       -1.3189481984
 O         -1.8104722700        0.4407253801       -1.3401294394
 C         -1.0730976699       -0.6943084100       -1.0327366698
 O         -0.3242297799       -1.0671730096       -1.9522999000
 O         -2.1787628300       -1.0874461615        2.3825243000
 C         -0.4874173298       -2.5124546307        0.6321651194
 C          0.9655770302       -2.3746934604        0.2589472395
 C          1.5762828603       -3.1252844299       -0.7363154308
 C          2.9076921403       -2.9179628697       -1.0533450906
 C          3.6594565102       -1.9719257099       -0.3808667202
 C          3.0575484501       -1.2163902004        0.6174090801
 C          1.7221646301       -1.4202522306        0.9289184999
 H          1.2515393600       -0.8235339410        1.7011341802
 N          3.8216106600       -0.2528663906        1.3130713405
 S          4.3738862099        1.0676986098        0.4472486611
 O          5.1600986000        0.6024519303       -0.6651753791
 O          5.0536429998        1.9040382494        1.4098928314
 C          2.9075335098        1.9000308399       -0.1355430386
 C          2.4743527997        3.0293990096        0.5310060418
 C          1.3189161697        3.6601376397        0.1003383821
 C          0.6169841898        3.1468070401       -0.9795284182
 C          1.0579339899        2.0062496304       -1.6321341686
 C          2.2146075199        1.3723079303       -1.2067315989
 H          2.5760258700        0.4814053205       -1.6946372692
 H          0.5005831899        1.5906409207       -2.4566028988
 H         -0.2799934103        3.6411667602       -1.3187483780
 H          0.9690879896        4.5463054295        0.6052746424
 H          3.0563511497        3.3956761493        1.3615063620
 H          3.3723125999        0.0756637990        2.1567894406
 H          4.6927002902       -1.7897272297       -0.6272420601
 H          3.3670177803       -3.5014372793       -1.8369138409
 H          1.0011464803       -3.8540265997       -1.2832517911
 H         -0.5543516099       -2.5284840711        1.7327431694
 C         -1.1132488597       -3.8105946805        0.1448508989
 C         -2.6006240697       -3.9391623806        0.0125954688
 C         -1.7356573297       -3.9545707500       -1.2102069212
 H         -1.6076842796       -4.8910974898       -1.7333674716
 H         -1.7389683797       -3.0918280697       -1.8574275309
 H         -3.0684002896       -4.8599860307        0.3270653084
 H         -3.1961143698       -3.0587203507        0.2063194191
 H         -0.5885620296       -4.6787856906        0.5322819485
