  62
        -98.94443525
 C         -1.9519300800       -1.0934323568       -0.2023885128
 C         -2.4324378113        0.0752293463       -0.8403005504
 C         -3.8881273211        0.2777118124       -0.7875963669
 C         -4.6617007620       -0.6413322824       -0.1814688430
 C         -6.1489591697       -0.5336126969       -0.0117031443
 C         -6.5080578880        0.1517366611        1.3142186360
 C         -5.7492296640        1.4557322512        1.5607377075
 H         -6.1047747440        1.8646566355        2.5089736653
 H         -4.6869161814        1.2331744450        1.6845911332
 C         -5.9185111376        2.5073239921        0.4553748797
 H         -6.7929717361        2.2698071884       -0.1515522795
 H         -6.1010586531        3.4782686373        0.9206642095
 C         -4.7001967496        2.6724942795       -0.4552548211
 H         -4.8412743167        3.5783604499       -1.0510180833
 H         -3.8034146327        2.8180181532        0.1526743165
 C         -4.4359282713        1.5197158219       -1.4321542136
 H         -5.3456854170        1.2958661130       -1.9930965762
 H         -3.6693945495        1.8525189632       -2.1383699910
 H         -6.2811489083       -0.5362437441        2.1318674724
 H         -7.5820120884        0.3464553657        1.3222009128
 H         -6.5649857129        0.0263269480       -0.8469055717
 H         -6.5693734465       -1.5406550818       -0.0155677102
 O         -4.1642380156       -1.7643245810        0.3969129483
 C         -2.8015702251       -2.0117643900        0.4142371372
 O         -2.4754784169       -3.0632774663        1.0011723099
 H          1.6673167311        0.0940378251       -1.1789510052
 C          1.3383495408        0.4059211127       -0.2025939435
 C          0.2818216172       -0.2301131695        0.4284823392
 C         -0.1156781582        0.2234809420        1.6846092416
 C          0.5129986142        1.2987001058        2.2799996624
 C          1.5618667993        1.9381120706        1.6416029682
 C          1.9722016313        1.4898254275        0.3927076946
 N          3.0207825815        2.1338276989       -0.2829702398
 S          4.2129349831        1.2516349545       -1.0514924077
 O          5.2779091578        2.2041501525       -1.2753800354
 O          3.6858567365        0.5987618449       -2.2216633807
 C          4.7212867070        0.0473226214        0.1612800128
 C          5.5643260212        0.4598038664        1.1751353187
 C          5.9197546352       -0.4448837782        2.1618468001
 C          5.4215764077       -1.7386298353        2.1228447032
 C          4.5776126030       -2.1370763055        1.0979879118
 C          4.2210955713       -1.2373366421        0.1055753640
 H          3.5713214379       -1.5115664787       -0.7088823557
 H          4.1934019542       -3.1443236657        1.0676440568
 H          5.6945481571       -2.4420551315        2.8936168786
 H          6.5801592864       -0.1400111282        2.9576003975
 H          5.9388289758        1.4705719586        1.1623314179
 H          3.4183474277        2.9170467930        0.2144623345
 H          2.0486183160        2.7854553848        2.1001155001
 H          0.1863949899        1.6434228304        3.2496369010
 H         -0.9377149504       -0.2751009565        2.1808581153
 C         -0.4623428565       -1.3902280186       -0.1858757733
 H         -0.3358513143       -2.2655815610        0.4678341237
 C          0.0104778053       -1.7524746287       -1.5778305288
 C          1.1597461532       -2.6957068258       -1.7613979788
 C         -0.2338469066       -3.1392158019       -2.0891497615
 H         -0.5080752779       -3.2654658117       -3.1257676880
 H         -0.7204756053       -3.8345435374       -1.4204374874
 H          1.8493135108       -2.5163390696       -2.5733912808
 H          1.6149217474       -3.1035316566       -0.8712222691
 H         -0.1000561845       -0.9377758494       -2.2848058694
 O         -1.6890761319        0.9077069972       -1.4224502815
