  62
        -98.94140537
 C         -0.8450354548       -1.6623311238        0.5089615513
 C         -1.6850850652       -1.3260608672       -0.5773393144
 C         -2.7917474225       -0.3866935147       -0.2997243459
 C         -2.9499326059        0.0813501641        0.9518167193
 C         -3.9856652913        1.0414018618        1.4772138662
 C         -3.7066455555        2.4998986878        1.0888226930
 C         -3.3466184963        2.7138378818       -0.3784454343
 H         -2.4298942686        2.1684018585       -0.6124368747
 H         -3.1172867309        3.7752212305       -0.5107001858
 C         -4.4424648108        2.3461521176       -1.3767830866
 H         -4.0965054464        2.6695103535       -2.3619772853
 H         -5.3463279276        2.9125634232       -1.1398954503
 C         -4.8052886803        0.8611257294       -1.4696516422
 H         -5.3634798809        0.7221491820       -2.4001294344
 H         -5.4710363311        0.5628927608       -0.6637204556
 C         -3.6068652603       -0.0797357751       -1.5315712176
 H         -2.8957419916        0.2915371843       -2.2794557887
 H         -3.9416059948       -1.0530457149       -1.9102854348
 H         -2.8690508363        2.8615923262        1.6909669169
 H         -4.5859015767        3.0963321591        1.3410756939
 H         -4.9760714056        0.7409309391        1.1482343663
 H         -3.9585490740        0.9612634944        2.5666458678
 O         -2.1147638562       -0.2757790531        1.9708373979
 C         -1.0452845035       -1.1308403343        1.7804265279
 O         -0.3617759608       -1.3389177580        2.8039859951
 H          0.6576505935       -0.0004751300       -0.3962359368
 C          1.3671356487       -0.6357219468       -0.9006739836
 C          1.3274972263       -2.0052136121       -0.6884609976
 C          2.2332512151       -2.8057211409       -1.3765902118
 C          3.1393295052       -2.2402388139       -2.2563177050
 C          3.1693831167       -0.8733748114       -2.4681481394
 C          2.2658579159       -0.0649388661       -1.7878935352
 N          2.2400384088        1.3185310935       -1.9923387919
 S          1.5628247241        2.3728945725       -0.8979525877
 O          0.1292736385        2.2303191461       -0.8693187884
 O          2.0608920247        3.6677757968       -1.3121455184
 C          2.2683248297        1.9423654060        0.6823530388
 C          1.4526115074        1.5285769070        1.7145432970
 C          2.0248842164        1.1632864452        2.9223268114
 C          3.4006817769        1.2270317843        3.0778842019
 C          4.2083529646        1.6604039726        2.0368137056
 C          3.6400640092        2.0183099344        0.8255342754
 H          4.2363456249        2.3637481215       -0.0030233265
 H          5.2774387639        1.7138662520        2.1650239564
 H          3.8432257953        0.9371956644        4.0178016287
 H          1.3893782005        0.8097400412        3.7188244253
 H          0.3849024490        1.4841198665        1.5608663259
 H          3.0034308875        1.7113097746       -2.5200317880
 H          3.8720381438       -0.4359778030       -3.1602441391
 H          3.8343910357       -2.8735207974       -2.7862540336
 H          2.2233450234       -3.8731184319       -1.2265895897
 C          0.3446406908       -2.5787185177        0.3069999383
 H          0.8510058806       -2.6344063417        1.2831415219
 C         -0.1192560501       -3.9711824171       -0.0785875490
 C          0.5909926176       -5.1855449177        0.4374504769
 C         -0.7656334820       -4.8308280848        0.9648869592
 H         -1.6105300165       -5.4402275718        0.6813859014
 H         -0.8367417671       -4.4241038806        1.9635707548
 H          1.4373729266       -5.0340046528        1.0904457124
 H          0.6775173958       -6.0451977320       -0.2100764360
 H         -0.5329790612       -4.0055653495       -1.0797973271
 O         -1.5259350083       -1.7845439624       -1.7397036554
