  62
        -98.93135713
 C          2.3325639469        1.4378062770        0.4245874873
 C          2.6780026317        0.5382685140       -0.6103366070
 C          3.7208633299       -0.4627041359       -0.2975219079
 C          4.2463161698       -0.5042248407        0.9390400346
 C          5.2975664671       -1.4326591404        1.4922907131
 C          5.1556882979       -2.9210022867        1.1375592691
 C          6.2263684886       -3.4187405984        0.1652362220
 H          7.1808199934       -2.9628746766        0.4364277488
 H          6.3349063715       -4.4987289554        0.2875182057
 C          5.9389164573       -3.1482008725       -1.3106348159
 H          5.1329097909       -3.8036070421       -1.6479959042
 H          6.8338740644       -3.4174077785       -1.8765408689
 C          5.5599402801       -1.7052089381       -1.6504274228
 H          5.7782460061       -1.5438440588       -2.7083495613
 H          6.1770683257       -1.0050012397       -1.0887575950
 C          4.0729811011       -1.3909366912       -1.4286035459
 H          3.6636701176       -0.9066788790       -2.3210260950
 H          3.5089558387       -2.3209949254       -1.3096757483
 H          5.2481451482       -3.4938456987        2.0616435052
 H          4.1613803161       -3.1137188832        0.7374874591
 H          6.2803271854       -1.0694920165        1.1818143369
 H          5.2462621532       -1.3024661079        2.5756047308
 O          3.8725204503        0.3749943668        1.9123157780
 C          2.9308881076        1.3580639639        1.6851774236
 O          2.7119875990        2.0941847650        2.6673909577
 O          2.1521795147        0.5440005769       -1.7552143486
 C          1.2998823224        2.5425102873        0.2660144855
 C         -0.0939221132        2.0283111907        0.5218082123
 C         -0.9488678726        2.6815386842        1.4012888657
 C         -2.2304484647        2.2062842798        1.6193945101
 C         -2.6833086675        1.0715905133        0.9703752929
 C         -1.8373816313        0.4122518685        0.0879172982
 C         -0.5544178812        0.8933587785       -0.1312760429
 H          0.0958116445        0.3857440312       -0.8285920542
 N         -2.2766689035       -0.7515820931       -0.5658339283
 S         -3.7703201962       -0.7211921248       -1.3309183441
 O         -3.6978866602       -1.7471386861       -2.3477026958
 O         -4.1063683541        0.6093922837       -1.7822911045
 C         -4.9081835046       -1.2432789868       -0.0645131160
 C         -6.0140003460       -0.4703729181        0.2307266501
 C         -6.8925280555       -0.9044460447        1.2114293181
 C         -6.6511747194       -2.0974021988        1.8752690106
 C         -5.5373225832       -2.8635102185        1.5649300728
 C         -4.6563548053       -2.4361774973        0.5844895009
 H         -3.7819418172       -3.0032125698        0.3117940990
 H         -5.3526441839       -3.7906215851        2.0833759241
 H         -7.3349585084       -2.4326290182        2.6390419815
 H         -7.7594036142       -0.3108745837        1.4535377111
 H         -6.1578778505        0.4529574918       -0.3074989596
 H         -1.5751648844       -1.1620242828       -1.1657054287
 H         -3.6798252428        0.6969186866        1.1378304548
 H         -2.8838358465        2.7231255345        2.3054935807
 H         -0.5988405906        3.5605382300        1.9225798939
 H          1.5350580522        3.2667708850        1.0615972872
 C          1.4238910615        3.2781179807       -1.0629459512
 C          0.3997515436        3.2147550157       -2.1524002858
 C          0.5530965079        4.4665587307       -1.3450567151
 H          0.9948548724        5.3350585105       -1.8094887291
 H         -0.2232593326        4.6930573726       -0.6297442689
 H          0.7559334969        3.2031959280       -3.1714709325
 H         -0.4832832983        2.6134981469       -1.9990970087
 H          2.4574628426        3.3487907160       -1.3867992659
