  62
        -98.93988662
 C         -1.8427999405       -0.6087317104       -0.0004462598
 C         -2.3555661908        0.6955040495        0.2216809597
 C         -3.7567887109        0.9224997290       -0.1533624104
 C         -4.4617899707       -0.0882759214       -0.6927369700
 C         -5.9128764307       -0.0187641519       -1.0690909500
 C         -6.8103911906       -0.4548176117        0.0975258602
 C         -6.4706504907        0.2225451189        1.4251696700
 H         -7.1856337206       -0.1389687910        2.1673736401
 H         -5.4793089506       -0.1030878407        1.7485153501
 C         -6.5091472711        1.7565681389        1.3833646794
 H         -7.0724913912        2.0898518684        0.5110413893
 H         -7.0375114111        2.1182550891        2.2680075593
 C         -5.1332646212        2.4255774792        1.3824971091
 H         -4.5302952311        2.0267965497        2.2023072993
 H         -5.2736567715        3.4934759493        1.5704524787
 C         -4.3272350212        2.2923401590        0.0841527991
 H         -4.9401176014        2.6068143185       -0.7632557410
 H         -3.4681572714        2.9662080292        0.1553907789
 H         -7.8477202106       -0.2415134820       -0.1666012398
 H         -6.7076306503       -1.5344637016        0.2282595806
 H         -6.1562021810        0.9989498980       -1.3681258403
 H         -6.0813525006       -0.6870695122       -1.9151360297
 O         -3.9343620804       -1.3169283413       -0.9123896195
 C         -2.6183398603       -1.6166209009       -0.5759358794
 O         -2.2936223400       -2.7877125009       -0.8403745390
 O         -1.6700183011        1.6276166199        0.7233869693
 C         -0.3990886105       -0.8490631599        0.4076959102
 C          0.5233384195       -0.5859749301       -0.7548070199
 C          0.3721528696       -1.2692527306       -1.9588256497
 C          1.2145525095       -1.0062037508       -3.0225349698
 C          2.2232839893       -0.0653904305       -2.9073551702
 C          2.3753343791        0.6305086600       -1.7137852804
 C          1.5289048192        0.3634143302       -0.6446323403
 H          1.6368402691        0.9333537605        0.2658917695
 N          3.3743328389        1.6013408503       -1.5846223208
 S          4.0842601288        1.9470195010       -0.1192170309
 O          3.2049486387        2.7431670011        0.6991171388
 O          5.3441752787        2.5645947112       -0.4751215912
 C          4.3919272092        0.3749999214        0.6676544396
 C          4.9903292795       -0.6342717088       -0.0607724800
 C          5.2546515298       -1.8438176285        0.5611003404
 C          4.9268934199       -2.0214568180        1.8963825605
 C          4.3319979496       -0.9969069179        2.6161380501
 C          4.0584276793        0.2128426918        1.9968761197
 H          3.5847141691        1.0310683518        2.5160242094
 H          4.0735831897       -1.1362751676        3.6535981302
 H          5.1314810801       -2.9640881678        2.3782556908
 H          5.7138273800       -2.6436915185        0.0032082007
 H          5.2431436694       -0.4671233591       -1.0948555401
 H          4.0138484188        1.6805423602       -2.3603471608
 H          2.8787550992        0.1415284894       -3.7394467702
 H          1.0872980696       -1.5417424612       -3.9511804596
 H         -0.4149004802       -2.0025049708       -2.0480426894
 H         -0.1935237506       -0.0772873696        1.1667543099
 C         -0.1769437601       -2.2055085096        1.0633960807
 C          0.7053914602       -3.2725125496        0.4941720311
 C          1.1448525100       -2.5092283291        1.7044692008
 H          1.1546448702       -3.0084999287        2.6611960910
 H          1.9317388798       -1.7808892289        1.5759394005
 H          0.3833881804       -4.2958532297        0.6110964415
 H          1.2085543301       -3.0787231698       -0.4393206290
 H         -1.0615962000       -2.5499875897        1.5887736109
