  62
        -98.94191844
 C          1.2763531688        1.3871795600        0.7292296572
 C          1.8495176816        1.1260554068       -0.5400269227
 C          2.8017228667        0.0050484810       -0.5940736064
 C          3.0220839886       -0.7326224115        0.5082798341
 C          3.9532074137       -1.9073166454        0.5832859935
 C          3.2317802426       -3.2248476285        0.2707632286
 C          2.3818823566       -3.1798893095       -0.9986832628
 H          1.9499707928       -4.1727885036       -1.1357942792
 H          1.5515975204       -2.4858664500       -0.8484657816
 C          3.1512509201       -2.7838861468       -2.2663340122
 H          4.2223553903       -2.9158045564       -2.1084151016
 H          2.8584283051       -3.4542217357       -3.0769590671
 C          2.8835179834       -1.3580803678       -2.7510424691
 H          1.8058176075       -1.1865930116       -2.8138237557
 H          3.2896364978       -1.2602559734       -3.7614380835
 C          3.4999716395       -0.2392194623       -1.9023566475
 H          4.5610041898       -0.4417363236       -1.7407051620
 H          3.4105696024        0.6928266395       -2.4682214642
 H          3.9810214420       -4.0136721508        0.1825577622
 H          2.5792287285       -3.4651556327        1.1121099469
 H          4.7721903897       -1.7542291077       -0.1172103113
 H          4.3595104496       -1.9569273595        1.5951195871
 O          2.3849976314       -0.5064198621        1.6862319914
 C          1.5002921099        0.5503125432        1.8249812817
 O          0.9794759902        0.6342441430        2.9557876416
 O          1.6007353692        1.7921243700       -1.5771104595
 C          0.2985212597        2.5305836269        0.9382988548
 C         -0.7549733334        2.4988776008       -0.1414730174
 C         -1.0059635912        3.5416766923       -1.0220287855
 C         -2.0008909505        3.4207304935       -1.9768990575
 C         -2.7763400448        2.2787572140       -2.0564248935
 C         -2.5329148084        1.2286473541       -1.1775369105
 C         -1.5203636996        1.3435674625       -0.2413486077
 H         -1.3223660574        0.5241034702        0.4338206752
 N         -3.2900746925        0.0485577929       -1.2277406497
 S         -3.7099946214       -0.7421584861        0.1866341835
 O         -4.9084242538       -1.4779270594       -0.1578699655
 O         -3.8243660884        0.1757808678        1.2951375751
 C         -2.3974516031       -1.9121552449        0.4665619881
 C         -2.2339167278       -2.9296557183       -0.4534441980
 C         -1.2521161950       -3.8810438484       -0.2334743957
 C         -0.4512156501       -3.7989041693        0.8959956919
 C         -0.6194006461       -2.7662238918        1.8047218246
 C         -1.6054756479       -1.8152252558        1.5928780903
 H         -1.7630521614       -1.0030294583        2.2867067101
 H          0.0111573114       -2.6852243008        2.6765791605
 H          0.3068006132       -4.5459467453        1.0710854768
 H         -1.1134821711       -4.6836191856       -0.9396507550
 H         -2.8846388908       -2.9645981418       -1.3112569088
 H         -4.0480744719        0.0563044694       -1.8943857324
 H         -3.5588832276        2.1932183882       -2.7951778703
 H         -2.1808176882        4.2328028079       -2.6651865519
 H         -0.4090926732        4.4377325715       -0.9772523009
 H         -0.2078873275        2.2991980103        1.8910394648
 C          0.9461723218        3.8947341131        1.1201424405
 C          2.3207855946        4.0219695199        1.7049036029
 C          2.0810686630        4.3771168694        0.2697739299
 H          2.1017891611        5.4212363999       -0.0070701288
 H          2.4497869225        3.7147006658       -0.4962793714
 H          2.5067124644        4.8173202127        2.4110864023
 H          2.8556537016        3.1089952401        1.9243395882
 H          0.2226098842        4.6416592258        1.4336067244
