  62
        -98.94797497
 C          1.2747525013        1.0221688698       -0.0185496596
 C          1.6354944110       -0.0698867503        0.8058058704
 C          2.7012905707       -0.9396764607        0.2935084503
 C          3.2148597107       -0.6989077109       -0.9266402597
 C          4.3337950104       -1.4776844213       -1.5542791698
 C          5.6988390306       -0.8594789417       -1.2202922599
 C          5.8972121208       -0.5663662618        0.2668097801
 H          6.9044893510       -0.1618908721        0.3865990500
 H          5.1976273211        0.2151395185        0.5716576201
 C          5.7238726305       -1.7860598917        1.1825528001
 H          5.8011376601       -2.7029965117        0.5971683601
 H          6.5376857205       -1.7962923220        1.9106302201
 C          4.4163515905       -1.8017217013        1.9764827802
 H          4.2905396209       -0.8466568912        2.4925604102
 H          4.4916566003       -2.5800527313        2.7404813202
 C          3.1454247104       -2.0812882108        1.1639979303
 H          3.2771471500       -2.9885513209        0.5701152303
 H          2.3279682503       -2.2550275806        1.8703559803
 H          6.4788712304       -1.5398284720       -1.5667891199
 H          5.7966818309        0.0789875682       -1.7708492999
 H          4.2923114701       -2.5077818212       -1.2049374698
 H          4.1935677903       -1.4669830812       -2.6366418998
 O          2.7980467010        0.3216138493       -1.7187200897
 C          1.8199448013        1.2072448796       -1.2886066896
 O          1.5316921116        2.0940267397       -2.1146317396
 H         -0.8276469091       -0.2462253795       -0.6017325195
 C         -1.4221105889        0.6164904207       -0.8599168794
 C         -1.0238719884        1.8764581106       -0.4353616194
 C         -1.7884104181        2.9731568008       -0.8132433794
 C         -2.9109927782        2.8025031112       -1.6052558393
 C         -3.3144190386        1.5424024213       -2.0085391393
 C         -2.5601731090        0.4382554211       -1.6287329593
 N         -2.9324222594       -0.8648200588       -1.9938127193
 S         -2.7087880098       -2.1016931189       -0.8879071093
 O         -1.3234236899       -2.4987122693       -0.8486294894
 O         -3.6428359102       -3.1258829686       -1.3070096893
 C         -3.2319216594       -1.4101806687        0.6718354207
 C         -4.5814783893       -1.1508644582        0.8208905908
 C         -5.0292790391       -0.5607730781        1.9905638608
 C         -4.1224100489       -0.2343833884        2.9879511508
 C         -2.7736953090       -0.5071977288        2.8263681107
 C         -2.3189640193       -1.1011491190        1.6587154906
 H         -1.2708503794       -1.3131614194        1.5142045106
 H         -2.0602752689       -0.2573439191        3.5956759706
 H         -4.4677391287        0.2325129717        3.8968626708
 H         -6.0791891790       -0.3534830277        2.1199906309
 H         -5.2556561995       -1.4288894580        0.0270713208
 H         -3.8203308795       -0.9378586385       -2.4682360093
 H         -4.1958564587        1.4117281216       -2.6171396892
 H         -3.4884753279        3.6641828714       -1.9034524193
 H         -1.5007697777        3.9618600807       -0.4956914694
 C          0.1915306917        1.9727271201        0.4544711605
 H         -0.1007933484        1.6059806302        1.4508560305
 C          0.7313670222        3.3806319800        0.5940097704
 C          0.1778163425        4.3029553202        1.6377750905
 C          1.5496602224        3.7235631697        1.8018370104
 H          2.4049388026        4.3708368794        1.6785755303
 H          1.6937830521        2.9472096096        2.5392454804
 H         -0.6091518675        3.9249607204        2.2725561505
 H          0.0926556229        5.3534846502        1.4041907705
 H          1.0397817622        3.8029476699       -0.3555273196
 O          1.0885100110       -0.3055481102        1.9177316604
