  62
        -98.94014675
 C          2.4330385492        0.9686785545        0.0349926691
 C          3.6856741811        0.9008761400        0.6989581984
 C          4.7103357020        0.0623686394        0.0684158408
 C          4.4244669658       -0.5948546358       -1.0697724261
 C          5.3672119018       -1.4731473510       -1.8467855128
 C          5.4503062414       -2.9142006040       -1.3250018427
 C          6.1995386645       -3.0852982775       -0.0029053265
 H          6.3711966658       -4.1550951326        0.1317618549
 H          7.1762818640       -2.6058663382       -0.0752547558
 C          5.4497443075       -2.5479195754        1.2241850968
 H          4.3946744103       -2.4111384467        0.9755784218
 H          5.4951036717       -3.2839205712        2.0300746459
 C          6.0015764181       -1.2346775857        1.7791114431
 H          5.3753651260       -0.9276192704        2.6206831622
 H          7.0153161339       -1.3920839429        2.1540842876
 C          6.0292758804       -0.0831547890        0.7655756981
 H          6.8276102654       -0.2391943581        0.0402351528
 H          6.2243537970        0.8456039238        1.3074549377
 H          4.4362081588       -3.3074145357       -1.2229042466
 H          5.9615719487       -3.5071110174       -2.0869374893
 H          6.3627667207       -1.0282820324       -1.8514615563
 H          4.9929671142       -1.4996974846       -2.8724720402
 O          3.2086210286       -0.5169683022       -1.6694097691
 C          2.1760907177        0.2436394005       -1.1300559949
 O          1.1198698667        0.1820702592       -1.7849950916
 O          3.9351991410        1.5144362237        1.7705141450
 C          1.3508398525        1.8169697786        0.6796845644
 C          0.0675801786        1.0341990803        0.7877965658
 C         -0.0173738449        0.0038822091        1.7199994050
 C         -1.1711351985       -0.7465566598        1.8412916425
 C         -2.2642897432       -0.4893260347        1.0324909100
 C         -2.1898018233        0.5341915748        0.0982599377
 C         -1.0324879489        1.2943369176       -0.0132059336
 H         -0.9805446383        2.0745974154       -0.7567672159
 N         -3.2865857012        0.7848300211       -0.7416354205
 S         -4.8141776484        0.9163210428       -0.0689251985
 O         -5.5755863745        1.7108838840       -1.0083202453
 O         -4.7546408961        1.4116806461        1.2871373398
 C         -5.4388921222       -0.7509055241       -0.0823589660
 C         -5.4250478210       -1.4422369151       -1.2778520725
 C         -5.9198481014       -2.7361924483       -1.3078999090
 C         -6.4200315090       -3.3125996782       -0.1496730673
 C         -6.4294610882       -2.6042880164        1.0420582261
 C         -5.9350777265       -1.3096882748        1.0790434889
 H         -5.9165960306       -0.7231721387        1.9838224663
 H         -6.8183527620       -3.0543858450        1.9413069298
 H         -6.8044129459       -4.3200406439       -0.1764175866
 H         -5.9132054498       -3.2904254279       -2.2326747977
 H         -5.0291353347       -0.9591515125       -2.1556675108
 H         -3.1202174072        1.5019205046       -1.4319414237
 H         -3.1660656893       -1.0735628824        1.1173853571
 H         -1.2208553276       -1.5422160914        2.5691865703
 H          0.8389686085       -0.2039024735        2.3472722522
 H          1.7231141770        1.9969240972        1.7019263382
 C          1.1632822642        3.1879286273        0.0471353728
 C          2.3358205890        3.9417772572       -0.5032103299
 C          1.2730471807        3.4314940359       -1.4271907205
 H          0.6003340186        4.1480461812       -1.8767113122
 H          1.5003599638        2.5901685829       -2.0626624894
 H          2.3967696878        5.0043011973       -0.3221175303
 H          3.2932862310        3.4416072137       -0.5015849474
 H          0.4207805953        3.7750729314        0.5804887600
