  62
        -98.93040571
 C         -1.7803306799       -0.2634533082       -0.3638951169
 C         -2.8372641641       -1.1771551341       -0.1162616214
 C         -4.2120907310       -0.6493631170       -0.2360266909
 C         -4.3924600228        0.6595256448       -0.4740576398
 C         -5.6931928509        1.4067474977       -0.5804852363
 C         -6.0855690548        2.0129784514        0.7773663891
 C         -6.8811398326        1.0827807692        1.6925513409
 H         -6.9758864670        1.5820621800        2.6596914688
 H         -7.8881466490        0.9573872860        1.2889978481
 C         -6.2664092102       -0.3019926782        1.9122271659
 H         -5.1903186677       -0.2058145891        2.0687127499
 H         -6.6899192755       -0.7147442073        2.8300390750
 C         -6.5417007252       -1.2745992220        0.7558344802
 H         -7.3069417567       -0.8488496917        0.1070183220
 H         -6.9560586410       -2.2025239064        1.1555238604
 C         -5.3128316925       -1.6629281391       -0.0790359794
 H         -4.8243262998       -2.5303486588        0.3760542503
 H         -5.6438050106       -1.9759089919       -1.0749768517
 H         -5.1674647640        2.3286156773        1.2799800459
 H         -6.6851190035        2.9085976717        0.6017802564
 H         -5.5261665640        2.2212633869       -1.2884580575
 H         -6.4778317823        0.7624037733       -0.9657193394
 O         -3.3487634326        1.5254840609       -0.5872342003
 C         -2.0315896644        1.1026237461       -0.5116226554
 O         -1.2078259269        2.0354032868       -0.5764438679
 O         -2.6606837533       -2.3805882540        0.2008644238
 C         -0.3344666455       -0.7412343018       -0.3039245328
 C          0.6196855881        0.1996407813       -0.9942414423
 C          0.5552265765        0.3954305899       -2.3703997809
 C          1.4856043797        1.1914519319       -3.0079204053
 C          2.5147470149        1.7830642915       -2.2956716114
 C          2.5914433309        1.5889966400       -0.9224646014
 C          1.6505394048        0.7931287722       -0.2836331006
 H          1.7052790527        0.6765089700        0.7882958826
 N          3.6173234225        2.1805633360       -0.1747688155
 S          4.2120079853        1.4617769081        1.2028801303
 O          3.2938657793        1.6248997269        2.3028799668
 O          5.5189414990        2.0574822145        1.3812875062
 C          4.3907411453       -0.2711503936        0.8130804313
 C          5.1337199322       -0.6250113590       -0.2960446769
 C          5.2875287341       -1.9680131164       -0.5999180685
 C          4.7017560125       -2.9310616567        0.2074884884
 C          3.9625782539       -2.5607914882        1.3202060495
 C          3.8035725277       -1.2185224365        1.6269228404
 H          3.2319897960       -0.8874287964        2.4797298980
 H          3.5041960047       -3.3107526099        1.9446684902
 H          4.8174671366       -3.9760108667       -0.0317842023
 H          5.8612503945       -2.2592399698       -1.4647874463
 H          5.5850497358        0.1459917636       -0.8986363972
 H          4.3254969888        2.6628433795       -0.7063178923
 H          3.2421140680        2.4049619865       -2.7947569047
 H          1.4169069205        1.3499118752       -4.0736284845
 H         -0.2471473722       -0.0622813848       -2.9302438937
 H         -0.0402218601       -0.8061351995        0.7563835810
 C         -0.1557372723       -2.1185801646       -0.9377230685
 C          1.2288651067       -2.6764137912       -1.1002323802
 C          0.2831006624       -3.2899443098       -0.1171373896
 H         -0.1521035829       -4.2530612956       -0.3333341062
 H          0.4558114890       -3.1203740499        0.9347321564
 H          1.4570183950       -3.2197491766       -2.0039734420
 H          2.0516673048       -2.0895500931       -0.7206462738
 H         -0.8606350036       -2.3194440722       -1.7353814946
