  62
        -98.93789031
 C          1.2795474179        1.3756160147        0.2812969422
 C          1.8462793720        0.4468930862        1.1873249412
 C          3.1014888268       -0.2081565251        0.7795699829
 C          3.6008499848        0.0365582547       -0.4460796111
 C          4.8703539271       -0.4345998629       -1.1251052597
 C          5.7200972988       -1.5412531991       -0.5077885213
 C          5.0794818619       -2.9291542382       -0.5461215693
 H          5.0800697923       -3.2813109311       -1.5807856271
 H          5.6999581866       -3.6121785414        0.0378613097
 C          3.6414376829       -3.0074653072       -0.0392182376
 H          2.9955293908       -2.3783738541       -0.6560108772
 H          3.2940801239       -4.0364884639       -0.1682972249
 C          3.4421019215       -2.6340807380        1.4277763325
 H          4.0825954404       -3.2566026690        2.0561698244
 H          2.4022495450       -2.8586219570        1.6823164390
 C          3.6997975512       -1.1593272020        1.7763321073
 H          3.2095376949       -0.9500852214        2.7317926984
 H          4.7622591074       -0.9665048946        1.9048880488
 H          6.6433632282       -1.5889285947       -1.0914311914
 H          6.0029649248       -1.2750749955        0.5064488418
 H          4.5770410370       -0.7295986837       -2.1378768341
 H          5.4925128829        0.4606847311       -1.2346941417
 O          2.9695246619        0.8719679073       -1.3217321548
 C          1.8013770281        1.5476339493       -0.9997935603
 O          1.3522073751        2.2443574765       -1.9284232879
 H         -0.7428652840       -0.2187922018       -0.3673393134
 C         -1.3311847884        0.5944135576       -0.7652556595
 C         -1.0604772682        1.8948290469       -0.3593309565
 C         -1.7948560827        2.9300715683       -0.9217275970
 C         -2.7695274185        2.6597982824       -1.8671927466
 C         -3.0523992702        1.3613286809       -2.2492406466
 C         -2.3202145174        0.3180305990       -1.6934642629
 N         -2.5736082485       -1.0180604509       -2.0407113668
 S         -2.4507069310       -2.1957171625       -0.8600810596
 O         -1.0682664348       -2.5247046808       -0.6174562677
 O         -3.2773793082       -3.2793428024       -1.3485746986
 C         -3.1983138469       -1.4698047634        0.5888945399
 C         -2.4331399667       -1.1343685418        1.6868504105
 C         -3.0469993935       -0.5220959099        2.7686784536
 C         -4.4071685690       -0.2586489691        2.7356551024
 C         -5.1651582689       -0.6118637654        1.6293405263
 C         -4.5567447491       -1.2206331381        0.5445246089
 H         -5.1139713112       -1.5189536727       -0.3284890899
 H         -6.2241545217       -0.4115583544        1.6084823450
 H         -4.8778364707        0.2223645242        3.5784782273
 H         -2.4520151965       -0.2499411403        3.6261076865
 H         -1.3750618469       -1.3462924501        1.6859914930
 H         -3.3729451653       -1.1604704535       -2.6400998622
 H         -3.8191116382        1.1540516060       -2.9798531682
 H         -3.3245302751        3.4741498339       -2.3074656797
 H         -1.5899659710        3.9494589559       -0.6396371284
 C          0.0008268836        2.0790164605        0.6958945205
 H         -0.3309749169        1.5227123854        1.5897329827
 C          0.1845543013        3.5235384877        1.1354741132
 C          1.5078606820        4.0179454892        1.6365209637
 C          0.9662383682        4.5180296895        0.3324989853
 H          0.6051611783        5.5351711686        0.2864667980
 H          1.4214172256        4.1733646296       -0.5822082471
 H          1.5187835939        4.6880081688        2.4831289842
 H          2.3409649234        3.3300253753        1.6122796769
 H         -0.6914422727        3.9012738975        1.6537018896
 O          1.3278217957        0.1803561826        2.3052179496
