  62
        -98.93952088
 C          2.0146956627        0.4181150527        0.8188356018
 C          2.3481001209        0.2367284264       -0.5463883689
 C          3.4449407053       -0.7059989621       -0.8114510799
 C          3.9931911470       -1.4031745637        0.1988936740
 C          5.1068915435       -2.4079214468        0.0829412183
 C          6.5085593905       -1.7820750523        0.0819061894
 C          6.8888523560       -1.0404350156       -1.2003329985
 H          7.9614972984       -0.8435079629       -1.1490389468
 H          6.7180199249       -1.6909709457       -2.0586306124
 C          6.1524411130        0.2907706645       -1.4060342482
 H          5.7152542419        0.6155295281       -0.4588737390
 H          6.8675339004        1.0595987101       -1.7069557404
 C          5.0558438515        0.2510385753       -2.4706267371
 H          4.5798954441        1.2342313390       -2.5082843339
 H          5.5017171163        0.0560648508       -3.4482913640
 C          3.9632038138       -0.7958287652       -2.2149437585
 H          4.3451253129       -1.7960894739       -2.4177236121
 H          3.1280108306       -0.5947111007       -2.8903442037
 H          6.5879947423       -1.1025799883        0.9338471551
 H          7.2262951167       -2.5912487993        0.2351865352
 H          5.0237029147       -3.0664493506        0.9503842430
 H          4.9718933932       -3.0039902390       -0.8200438304
 O          3.5644761819       -1.2832500704        1.4849208405
 C          2.5903769743       -0.3584720316        1.8269928636
 O          2.3141261126       -0.3357777819        3.0439971715
 O          1.7740166696        0.8223005554       -1.4989694046
 C          0.9534995583        1.4140832870        1.2517010522
 C         -0.2720396092        1.2818030220        0.3809212303
 C         -0.8483399697        2.3375710675       -0.3126174013
 C         -1.9872619208        2.1408500474       -1.0745413208
 C         -2.5799226621        0.8942538930       -1.1552521679
 C         -2.0130105064       -0.1673153729       -0.4626982477
 C         -0.8748590474        0.0314131694        0.2986871286
 H         -0.4395976843       -0.8013562899        0.8404882090
 N         -2.6454676130       -1.4392320152       -0.5244284147
 S         -3.8851201817       -1.5908006184        0.6107841148
 O         -3.4802736743       -1.0695010837        1.8995431270
 O         -4.2720323958       -2.9843769119        0.5868683929
 C         -5.1798721045       -0.5814030998       -0.0698171015
 C         -5.9217738295       -1.0766748726       -1.1243311279
 C         -6.9099234055       -0.2782547358       -1.6781233877
 C         -7.1342047573        0.9939952850       -1.1730171849
 C         -6.3810648279        1.4750346408       -0.1126462128
 C         -5.3924756295        0.6813600645        0.4472468593
 H         -4.7808398252        1.0122645486        1.2711091177
 H         -6.5566607947        2.4642033991        0.2782752049
 H         -7.9016430130        1.6147781450       -1.6078017067
 H         -7.4993020498       -0.6488106983       -2.5012902347
 H         -5.7142738446       -2.0719743232       -1.4808525858
 H         -1.9951595978       -2.1993716677       -0.3741814192
 H         -3.4574529508        0.7295485066       -1.7587930505
 H         -2.4156008380        2.9695283496       -1.6168816281
 H         -0.3919269349        3.3129315898       -0.2754658548
 H          0.6662878424        1.0986285172        2.2694211890
 C          1.4618836353        2.8441004083        1.3681782508
 C          2.9095136907        3.1306797075        1.6318984280
 C          2.3059154792        3.4818242647        0.3071768189
 H          2.1430767531        4.5254788036        0.0813764436
 H          2.5618448506        2.8831817008       -0.5521358695
 H          3.1568593752        3.9282780851        2.3162951074
 H          3.5855879318        2.2891032056        1.6825141802
 H          0.7491897302        3.4856097418        1.8772347943
