  62
        -98.94218867
 C         -1.6226195352       -1.5034019400       -0.2085482691
 C         -2.7203315889       -0.9118431097        0.4527654390
 C         -3.2407772794        0.3403518712       -0.1197516744
 C         -2.6473028382        0.8660024313       -1.2081766163
 C         -2.9630910081        2.1110318704       -2.0105337221
 C         -3.8817828485        3.1919824773       -1.4478769192
 C         -3.3192288948        3.9407398643       -0.2401604217
 H         -2.4721945510        4.5479817911       -0.5697398950
 H         -4.0916407189        4.6177823376        0.1324400092
 C         -2.8285865936        3.0665986183        0.9118733059
 H         -2.4624971032        3.7310269154        1.7007281602
 H         -1.9717738676        2.4709704310        0.5856366706
 C         -3.8837011590        2.1493186741        1.5288530992
 H         -4.7509420097        2.7402976578        1.8311066672
 H         -3.4481918569        1.7096618614        2.4308526957
 C         -4.3632725442        0.9920002823        0.6353601144
 H         -4.7872374606        0.2193532149        1.2838432075
 H         -5.1476871299        1.3155225341       -0.0444807240
 H         -4.0284152536        3.9225992449       -2.2481906108
 H         -4.8584650387        2.7767058097       -1.2170862333
 H         -1.9910319430        2.5573259945       -2.2445201398
 H         -3.3817187055        1.7587634836       -2.9600835994
 O         -1.5999085292        0.2483209642       -1.8236776124
 C         -1.0277692328       -0.9021761520       -1.3168849814
 O         -0.0227785693       -1.2946741577       -1.9406874333
 O         -3.2423605651       -1.4048303261        1.4919604929
 C         -0.9666851193       -2.7374673404        0.3893871149
 C          0.4526704615       -2.3719670454        0.7465871780
 C          1.5690665083       -3.1092510706        0.3757043164
 C          2.8442173593       -2.6317164729        0.6303998193
 C          3.0324068960       -1.3999715958        1.2311810730
 C          1.9206423995       -0.6715564286        1.6313087533
 C          0.6499019318       -1.1733656625        1.4223227242
 H         -0.2087784593       -0.5875650777        1.7276720104
 N          2.1045352066        0.6474730295        2.1467711309
 S          1.8229541768        1.7702761591        0.9099753036
 O          2.0506395644        3.0716897747        1.5035971968
 O          0.5184420207        1.5886349463        0.3098384986
 C          3.1204250376        1.3763554217       -0.2364331127
 C          2.8747231554        0.4947118701       -1.2702899972
 C          3.9219527871        0.1531492945       -2.1128712403
 C          5.1828591228        0.6914162892       -1.9074183527
 C          5.4104598125        1.5763932713       -0.8637024077
 C          4.3708549343        1.9210966201       -0.0157961808
 H          4.4949683607        2.6041692553        0.8083453573
 H          6.3920725530        1.9937429519       -0.7071030004
 H          5.9924938171        0.4184093106       -2.5657777884
 H          3.7399112407       -0.5379229311       -2.9201855432
 H          1.8844698947        0.0850867789       -1.4052790222
 H          1.4666462552        0.8595350019        2.9037076854
 H          4.0182098794       -0.9933742561        1.3872821831
 H          3.7013806981       -3.2123963157        0.3269162576
 H          1.4401265666       -4.0490564923       -0.1359317790
 H         -1.5244918240       -2.9531117964        1.3126101089
 C         -1.0754273193       -3.9235220058       -0.5434087892
 C         -1.0633605116       -5.3180170324        0.0063425476
 C         -2.3329738097       -4.7380563879       -0.5382892182
 H         -2.7101022640       -5.1085937599       -1.4795023550
 H         -3.1070340913       -4.4497900340        0.1579384188
 H         -0.5709208241       -6.0922039320       -0.5621581002
 H         -0.9778430779       -5.4325605374        1.0762951008
 H         -0.5998369155       -3.7428529677       -1.5006879194
