  62
        -98.94375252
 C          2.2066029159        1.2274820552       -0.1349180302
 C          2.6425778912        0.1796366370       -0.9806909513
 C          4.0125339564       -0.2991726766       -0.7465829999
 C          4.7655719072        0.2902835984        0.2000855443
 C          6.1481467678       -0.1441392810        0.5895358475
 C          6.1019009983       -1.1660949289        1.7344959204
 C          5.1195040461       -2.3138089772        1.4995088040
 H          5.1937164685       -2.9859711613        2.3571688248
 H          4.1014167593       -1.9176167382        1.4896978353
 C          5.3649921668       -3.1054095506        0.2073720400
 H          6.3766090370       -2.9186892013       -0.1549664931
 H          5.2925949566       -4.1718664908        0.4310816198
 C          4.3644822032       -2.8173837121       -0.9137417421
 H          3.3450405298       -2.9143914243       -0.5309363695
 H          4.4952062613       -3.5768389452       -1.6893414944
 C          4.4958061957       -1.4460085473       -1.5884625208
 H          5.5289229076       -1.2876430537       -1.9042831522
 H          3.8603378518       -1.4526090727       -2.4789732507
 H          7.1060918069       -1.5685518671        1.8792750851
 H          5.8085813830       -0.6469918202        2.6499394495
 H          6.6471681417       -0.5744882784       -0.2763539775
 H          6.7055139422        0.7337911466        0.9203272851
 O          4.3266649609        1.3272828619        0.9585276953
 C          3.0336466248        1.8068923671        0.8266623545
 O          2.7434452523        2.7339633194        1.6094794763
 H         -1.4148211568        1.0803046107       -1.7815209810
 C         -1.2612242069        0.4157113481       -0.9458645148
 C         -0.1917493154        0.6161656382       -0.0877995453
 C         -0.0341599544       -0.2525701907        0.9891632375
 C         -0.8977517061       -1.3141655992        1.1766189311
 C         -1.9492365853       -1.5266459334        0.3022898360
 C         -2.1321743290       -0.6511246815       -0.7587922682
 N         -3.2164995472       -0.8427791858       -1.6293134150
 S         -4.7039165241       -1.2148617293       -0.9615657896
 O         -4.7748428842       -2.6261622927       -0.6760163806
 O         -5.6780113410       -0.7137370471       -1.9056256145
 C         -4.7703710554       -0.2875471811        0.5624879866
 C         -4.6452352399        1.0862107332        0.4970252204
 C         -4.6562032681        1.8169717101        1.6736430380
 C         -4.7915617497        1.1654114211        2.8901875725
 C         -4.9235552478       -0.2133808588        2.9387762194
 C         -4.9108897965       -0.9496367281        1.7648458646
 H         -5.0055974623       -2.0233769948        1.7581306357
 H         -5.0310032524       -0.7172561622        3.8858244318
 H         -4.7942889714        1.7368686383        3.8049909714
 H         -4.5548734206        2.8898368129        1.6388016370
 H         -4.5469614771        1.5648180931       -0.4639068094
 H         -3.2935127401       -0.1503821686       -2.3592580407
 H         -2.6206451962       -2.3615247371        0.4204978483
 H         -0.7504626448       -1.9865921374        2.0082092115
 H          0.7881009727       -0.0893979611        1.6729615049
 C          0.7877356940        1.7521687162       -0.2576792344
 H          0.6486226888        2.4523755987        0.5788186662
 C          0.6236311172        2.5105933335       -1.5585257778
 C         -0.3686308391        3.6291469904       -1.6620982137
 C          1.0992810577        3.9292236940       -1.6308630042
 H          1.5783112910        4.2670670666       -2.5376335810
 H          1.5183663652        4.3564414579       -0.7314393143
 H         -0.9501066923        3.8646712943       -0.7836745784
 H         -0.8968683929        3.7677910023       -2.5937751619
 H          0.7868812424        1.8843839972       -2.4285463522
 O          1.9253372915       -0.3331127063       -1.8790856337
