  62
        -98.93609538
 C          2.6226379811        1.1747907389        0.3589766897
 C          2.2742718705        0.3859122090       -0.7649823102
 C          2.8539889998       -0.9695461413       -0.8203189501
 C          3.6948623397       -1.3779270717        0.1472260598
 C          4.4549520690       -2.6768558121        0.3124113198
 C          3.9869715683       -3.9453797719       -0.3983134700
 C          2.6082313181       -4.4525085211        0.0228037203
 H          2.6598622980       -4.7913497110        1.0606647403
 H          2.3613272275       -5.3171416210       -0.5971000996
 C          1.4713492586       -3.4365264105       -0.0747512397
 H          1.6301190491       -2.6360699605        0.6521501802
 H          0.5407292384       -3.9370322900        0.2094419705
 C          1.2558862087       -2.8162328505       -1.4551178997
 H          0.3145733790       -2.2586644500       -1.4156431896
 H          1.1412611582       -3.6084621905       -2.1977186396
 C          2.3571993191       -1.8485411912       -1.9298512800
 H          1.9185982694       -1.1846147010       -2.6801673599
 H          3.1802812288       -2.3810648616       -2.4009300800
 H          4.7135525479       -4.7240760422       -0.1510054700
 H          4.0223354382       -3.8108284920       -1.4752576700
 H          5.4849217191       -2.4691316126        0.0018454096
 H          4.4872118191       -2.8627678320        1.3904067698
 O          4.0414969003       -0.5620616718        1.1860218897
 C          3.4783306210        0.6931199586        1.3489860296
 O          3.8113521615        1.2686201785        2.4047487795
 H          0.3561560011        0.7412933902        1.7013343801
 C         -0.1909848887        1.3750011105        1.0115717401
 C          0.4869847817        2.3915331800        0.3485018199
 C         -0.2235870580        3.1897573403       -0.5364802500
 C         -1.5695854281        2.9565201910       -0.7623256398
 C         -2.2327910786        1.9283396314       -0.1184631796
 C         -1.5319146189        1.1269985912        0.7735518304
 N         -2.1961750793        0.0674498616        1.4276452406
 S         -2.8239423101       -1.1387462882        0.4327750808
 O         -2.9058647706       -2.3138825381        1.2746680009
 O         -2.0680398804       -1.2775588687       -0.7893227693
 C         -4.4705914299       -0.5635476374        0.0780212410
 C         -4.8629505800       -0.3600071673       -1.2301076990
 C         -6.1510097598        0.0879265734       -1.4803668988
 C         -7.0176389795        0.3229125439       -0.4238926087
 C         -6.6080209894        0.1115500139        0.8844805113
 C         -5.3226250096       -0.3374916868        1.1414679211
 H         -4.9639338895       -0.5184955469        2.1409137411
 H         -7.2848107992        0.2958018643        1.7031517014
 H         -8.0185218593        0.6728859545       -0.6215272886
 H         -6.4709840198        0.2528119235       -2.4966697088
 H         -4.1507357002       -0.5487148977       -2.0176093691
 H         -1.6333844494       -0.3628879087        2.1486165805
 H         -3.2764282487        1.7342098120       -0.3058217694
 H         -2.1073788379        3.5787711412       -1.4613270298
 H          0.2825902823        3.9733157900       -1.0757440002
 C          1.9681108618        2.5235538593        0.6128157797
 H          2.1048092721        2.7054158293        1.6922948997
 C          2.6165680824        3.6950182289       -0.1074448105
 C          4.0666995223        3.6574812781       -0.4850220307
 C          3.0141083821        3.6272473585       -1.5500487906
 H          2.8797185025        4.5089156885       -2.1596438106
 H          2.8329107315        2.7019013786       -2.0729645305
 H          4.6140143018        2.7491846678       -0.2775639207
 H          4.6514475728        4.5566527478       -0.3610695309
 H          2.2410802029        4.6481997691        0.2518437894
 O          1.5139721806        0.7780931393       -1.6856948201
