  62
        -98.94683305
 C          1.2590890145        1.1998411019        0.0709322197
 C          2.0487694455        0.7214735404        1.1422409233
 C          2.7068384444       -0.5713178557        0.9219230076
 C          2.4992523046       -1.2374304532       -0.2288028044
 C          3.0862911080       -2.5744544155       -0.5922818347
 C          4.5053096167       -2.4958198233       -1.1725515427
 C          5.6056708472       -2.1675934189       -0.1627029498
 H          5.5355009979       -2.8495826991        0.6853575951
 H          6.5607254928       -2.3597127663       -0.6557867925
 C          5.5937843226       -0.7168070485        0.3387876799
 H          6.6099486212       -0.3164135648        0.3195359259
 H          4.9951911317       -0.1017992978       -0.3370546802
 C          5.0664549453       -0.5423751044        1.7630414908
 H          5.7354226472       -1.0438342603        2.4661050497
 H          5.0681792743        0.5245713141        2.0007359812
 C          3.6433617217       -1.0739569782        1.9789408733
 H          3.2840769862       -0.7081594146        2.9442437365
 H          3.6484683875       -2.1635796593        1.9989376837
 H          4.7300079843       -3.4683149102       -1.6165902537
 H          4.5147198750       -1.7540497354       -1.9742994385
 H          3.0864779434       -3.2261234306        0.2818715288
 H          2.4309834840       -3.0063593904       -1.3506199619
 O          1.6944853907       -0.7641149676       -1.2155244380
 C          1.0630911455        0.4653508838       -1.0997221805
 O          0.3686262791        0.7812168649       -2.0816068897
 O          2.1877141967        1.3388335707        2.2335531992
 C          0.5500522141        2.5348050071        0.2138752440
 C         -0.9392342504        2.3182476460        0.1146398867
 C         -1.7697639841        3.0268089507       -0.7421832151
 C         -3.1225969518        2.7365628541       -0.8073979985
 C         -3.6764868673        1.7450434114       -0.0189769989
 C         -2.8552762885        1.0400679611        0.8519707862
 C         -1.5028473008        1.3311306749        0.9150318683
 H         -0.8649006511        0.7748478322        1.5913041851
 N         -3.4071039865        0.0198565497        1.6591553436
 S         -4.0255950559       -1.3049413582        0.8399552306
 O         -5.2015353803       -0.8956019626        0.1159704372
 O         -4.2168132484       -2.3236337960        1.8475573709
 C         -2.7434658668       -1.7972096851       -0.2966950087
 C         -2.6971364653       -1.2277708681       -1.5531126325
 C         -1.6722627687       -1.5869923134       -2.4129904702
 C         -0.7171637069       -2.5035569119       -2.0032746767
 C         -0.7725064240       -3.0605094480       -0.7350420217
 C         -1.7918391039       -2.7011342546        0.1311604476
 H         -1.8750991405       -3.1174068130        1.1227159869
 H         -0.0238226665       -3.7686737146       -0.4166782500
 H          0.0798141965       -2.7749508409       -2.6774157424
 H         -1.6115861285       -1.1403991730       -3.3917440375
 H         -3.4597461381       -0.5217942675       -1.8385877472
 H         -2.7656137427       -0.3060258946        2.3691057884
 H         -4.7232949137        1.4933567489       -0.0728163555
 H         -3.7544664685        3.2898696576       -1.4855014663
 H         -1.3578706365        3.7998727481       -1.3694933701
 H          0.7802379181        2.8827858678        1.2318739656
 C          1.0915344393        3.5400736434       -0.7795446914
 C          1.0312619582        5.0063911032       -0.4757464907
 C          2.3455514415        4.2874460007       -0.4422767592
 H          3.0602843917        4.4782869891       -1.2287320324
 H          2.7980480658        4.0902111732        0.5187751602
 H          0.8455321684        5.6946483913       -1.2863828924
 H          0.5929727334        5.3045956360        0.4646433651
 H          0.9603872433        3.2225509992       -1.8076692499
