  62
        -98.94539713
 C         -1.5560154173       -1.2934827439       -0.7097329010
 C         -2.8307114330       -1.0727242189       -0.1251756181
 C         -3.5160247960        0.1725206735       -0.4882291173
 C         -2.9218069410        1.0191771035       -1.3481276051
 C         -3.4738218775        2.3517885180       -1.7625767646
 C         -2.9630425939        3.4699742297       -0.8437235915
 C         -3.1167271642        3.1643249305        0.6463609595
 H         -2.4512946316        2.3372205347        0.9080922815
 H         -2.7597486932        4.0394190073        1.1944338540
 C         -4.5503957071        2.8336265548        1.0854406326
 H         -4.7648546419        3.3747995434        2.0094271465
 H         -5.2573908353        3.1844081662        0.3326432228
 C         -4.8041462754        1.3516275399        1.3681841647
 H         -4.0339089706        0.9724815483        2.0451481825
 H         -5.7651804040        1.2633290001        1.8820062137
 C         -4.8560124550        0.4369991865        0.1380534478
 H         -5.5517869928        0.8469889954       -0.5968152615
 H         -5.2320021435       -0.5373076200        0.4638118251
 H         -1.9006365077        3.6279062771       -1.0453129953
 H         -3.4984158783        4.3899817461       -1.0867212450
 H         -3.1492418121        2.5570279619       -2.7841493356
 H         -4.5612441067        2.3135138747       -1.7368744856
 O         -1.7166848706        0.7660488715       -1.9107418533
 C         -0.9873434903       -0.3692958694       -1.5858022694
 O          0.1159590481       -0.4231897965       -2.1640694125
 O         -3.3743382378       -1.8918869705        0.6649720470
 C         -0.8301533738       -2.5541406120       -0.2678486975
 C         -0.0018047176       -2.2492006788        0.9590435370
 C         -0.2025146148       -2.9417996087        2.1463439893
 C          0.5210342253       -2.6142025739        3.2794970366
 C          1.4338226609       -1.5766173640        3.2531297130
 C          1.6442544812       -0.8772523318        2.0678411413
 C          0.9502593687       -1.2392993070        0.9236079006
 H          1.1148374127       -0.6968450588        0.0081462269
 N          2.5621480191        0.1791280693        2.0266459168
 S          2.3593627700        1.5394051492        1.0631708310
 O          2.8947676742        2.6220086736        1.8658545675
 O          0.9938869208        1.6914120981        0.6245557247
 C          3.4826378884        1.2461201754       -0.2873714572
 C          3.0300374687        0.8232520270       -1.5196804367
 C          3.9571359440        0.5878237413       -2.5250522746
 C          5.3083644222        0.7782067020       -2.2852001561
 C          5.7465814062        1.2071796428       -1.0408788851
 C          4.8275916377        1.4429373257       -0.0328495318
 H          5.1218495571        1.7906689806        0.9434422700
 H          6.7979050345        1.3577197327       -0.8556202888
 H          6.0220459916        0.5929145386       -3.0725662522
 H          3.6085550399        0.2540409565       -3.4895204506
 H          1.9744051776        0.6751944295       -1.6905431136
 H          2.9604575988        0.4237962363        2.9212221264
 H          1.9778701886       -1.3005339805        4.1437858297
 H          0.3572620134       -3.1576048622        4.1977801827
 H         -0.9468191521       -3.7233634599        2.1841968376
 H         -1.6225733022       -3.2532805234        0.0340879599
 C          0.0088529513       -3.2176414290       -1.3398627267
 C          0.3098644788       -4.6807920791       -1.2210356977
 C         -0.6352748697       -4.1929348199       -2.2768839927
 H         -0.3142044074       -4.2030839991       -3.3073959171
 H         -1.6900732043       -4.3878113792       -2.1475394006
 H          1.2841553406       -5.0308242490       -1.5250453172
 H         -0.1049332525       -5.2110658507       -0.3772668605
 H          0.7797220033       -2.5762002119       -1.7450338138
