  62
        -98.93594378
 C         -1.8435862194       -1.1155872400       -0.0130246599
 C         -2.3457002495        0.1627363400       -0.3452170194
 C         -3.7953391095        0.3711937499       -0.1537776491
 C         -4.5502203393       -0.6481975202        0.2935676707
 C         -6.0338418393       -0.6789271204        0.5614083409
 C         -6.9366777895       -0.0258688701       -0.4965828288
 C         -7.5866107695        1.2748561297       -0.0218360583
 H         -8.4955574996        1.4441133798       -0.6034399481
 H         -7.8855356493        1.1534640794        1.0213674617
 C         -6.7147700696        2.5223056398       -0.1553131081
 H         -6.6254431597        2.7896379101       -1.2105644380
 H         -7.2338978095        3.3436028496        0.3444481523
 C         -5.3067694795        2.4032261597        0.4317354317
 H         -5.3314933493        1.8682919494        1.3803497015
 H         -4.9478776795        3.4124455696        0.6449638719
 C         -4.2973465196        1.7416573300       -0.5183387787
 H         -4.7059115497        1.7090470303       -1.5327826986
 H         -3.3936766196        2.3566034801       -0.5803665186
 H         -6.3715714596        0.1450354802       -1.4115688688
 H         -7.7333239595       -0.7319340401       -0.7364517988
 H         -6.2819437492       -1.7382908904        0.6581247406
 H         -6.2197046292       -0.2254819907        1.5381271911
 O         -4.0180576592       -1.8651658403        0.6054201202
 C         -2.6686891892       -2.1298749802        0.4702191700
 O         -2.3309073491       -3.2823471603        0.8077663796
 H          1.5868423804        0.3929607604       -0.9617392600
 C          1.3986922306        0.3853353801        0.0979725900
 C          0.4495124907       -0.4622064801        0.6448698199
 C          0.2228462309       -0.4145347305        2.0189367700
 C          0.9180870510        0.4697190293        2.8193761001
 C          1.8619545509        1.3195459695        2.2684451902
 C          2.0981685507        1.2790735299        0.9000511902
 N          3.0307966505        2.1506598501        0.3176281303
 S          4.1025523404        1.6372527905       -0.8546396801
 O          5.0695620403        2.7083902706       -0.9492348599
 O          3.4053749402        1.2973674908       -2.0678222700
 C          4.8737168706        0.1909852703       -0.1520467006
 C          5.9391412507        0.3702070401        0.7090667593
 C          6.5123121408       -0.7395708700        1.3077916689
 C          6.0066247009       -2.0036516800        1.0437548586
 C          4.9364398407       -2.1663827798        0.1778918887
 C          4.3612595906       -1.0602648796       -0.4280377809
 H          3.5324617305       -1.1498584995       -1.1102927508
 H          4.5457167707       -3.1500245197       -0.0288700815
 H          6.4502467910       -2.8678132201        1.5125819383
 H          7.3479267309       -0.6166743602        1.9778145588
 H          6.3080709307        1.3689264101        0.8776928995
 H          3.4834273706        2.7753934599        0.9683929304
 H          2.3998379910        2.0186885893        2.8905477203
 H          0.7264899812        0.4990930390        3.8814258502
 H         -0.5192879590       -1.0758967207        2.4458289499
 C         -0.3659551894       -1.4267302199       -0.1806313602
 H         -0.2240164193       -2.4360552900        0.2320076495
 C          0.0012336104       -1.4471586895       -1.6489868903
 C          1.1404602704       -2.2951213093       -2.1259067407
 C         -0.2705822397       -2.6856152592       -2.4467284906
 H         -0.6202551098       -2.5780684490       -3.4625491005
 H         -0.7005484796       -3.5275458694       -1.9235052908
 H          1.7641015102       -1.9184549290       -2.9234928207
 H          1.6652363805       -2.8838205795       -1.3883704510
 H         -0.1674677597       -0.4954877793       -2.1401722600
 O         -1.6231464396        1.0971394702       -0.7819112793
