  62
        -98.94442620
 C         -1.8237814341       -0.0386423723       -0.4441768239
 C         -2.9867164506        0.2807627209       -1.1851806409
 C         -4.2586420406       -0.1863900725       -0.6186877205
 C         -4.2475165549       -0.8920278085        0.5270835401
 C         -5.4724876697       -1.3829399231        1.2419313537
 C         -5.9637789604       -0.3549478659        2.2707930374
 C         -6.0871183717        1.0641272556        1.7157007255
 H         -5.0912226014        1.4351289358        1.4628925769
 H         -6.4702791847        1.6955599962        2.5202774985
 C         -7.0007378602        1.1885388770        0.4883616440
 H         -7.6473745727        2.0585829294        0.6202694120
 H         -7.6469159314        0.3128868478        0.4174002900
 C         -6.2602505686        1.3806694612       -0.8363995335
 H         -5.5429162592        2.1993667877       -0.7393013750
 H         -6.9909648477        1.6737337114       -1.5948801793
 C         -5.5165896473        0.1495781638       -1.3695156701
 H         -5.2035921083        0.3687700954       -2.3945478211
 H         -6.1927370259       -0.7073989533       -1.3926812068
 H         -5.2580063249       -0.3363942908        3.1045857409
 H         -6.9319353622       -0.6842576215        2.6525314704
 H         -5.2197601244       -2.3097960345        1.7597021205
 H         -6.2552387179       -1.5866628033        0.5138228809
 O         -3.1080394118       -1.2013952624        1.1978278275
 C         -1.8688860713       -0.7766406334        0.7383537964
 O         -0.9105181831       -1.1183066049        1.4569419087
 O         -2.9605449187        0.9209291481       -2.2706298949
 C         -0.4764602761        0.4335105140       -0.9593279033
 C          0.4535612575       -0.7367484471       -1.1580312256
 C         -0.0007718761       -1.8395549705       -1.8776518832
 C          0.8156106599       -2.9335614894       -2.0842696698
 C          2.1041478514       -2.9515052747       -1.5796184647
 C          2.5735973798       -1.8515646536       -0.8726476496
 C          1.7528880450       -0.7486179708       -0.6751651382
 H          2.1336923926        0.0891330048       -0.1159565328
 N          3.8924092755       -1.8248682680       -0.4019122383
 S          4.3265500316       -1.0127828903        0.9920344875
 O          5.6317141657       -1.5519090638        1.3156933913
 O          3.3281465024       -1.1145805456        2.0293200607
 C          4.5247034862        0.6816972704        0.4818055884
 C          5.1178089034        0.9525382682       -0.7355138234
 C          5.3119822507        2.2737227182       -1.1055254054
 C          4.9216885208        3.2963718719       -0.2543764150
 C          4.3321022845        3.0078094598        0.9668363936
 C          4.1301940762        1.6880549118        1.3407300411
 H          3.6628059789        1.4179324840        2.2748028862
 H          4.0286118050        3.8034656659        1.6289748188
 H          5.0748383795        4.3240294076       -0.5436784736
 H          5.7678726099        2.5023168286       -2.0552801347
 H          5.4102859945        0.1335793295       -1.3708356795
 H          4.4061444607       -2.6865707198       -0.5118012970
 H          2.7412515924       -3.8094850059       -1.7315657159
 H          0.4459366255       -3.7838504644       -2.6375938645
 H         -1.0103151180       -1.8289596630       -2.2657424273
 H         -0.6839987974        0.8757600417       -1.9456219234
 C          0.0872463511        1.5104553935       -0.0564456088
 C          0.9723650584        2.5782892047       -0.6245403182
 C         -0.4248858140        2.9115362406       -0.1981847873
 H         -0.5676756048        3.5006525462        0.6952757782
 H         -1.1665671878        3.0910077688       -0.9628522197
 H          1.7939608948        2.9400518844       -0.0253052829
 H          1.1825667510        2.5387624691       -1.6824368276
 H          0.2919377084        1.1494382420        0.9462686734
