  62
        -98.94805571
 C         -1.2277066998       -1.4257421302        0.4888576004
 C         -2.2360970899       -1.2491813413       -0.4880611098
 C         -3.3758421504       -0.4125226718       -0.0864153903
 C         -3.3846590308        0.1504680789        1.1355665394
 C         -4.4504671913        1.0761035285        1.6452946889
 C         -4.1047330922        2.5407358485        1.3424283681
 C         -3.7007917623        2.7955588280       -0.1100448020
 H         -3.5168721830        3.8677132680       -0.2112377826
 H         -2.7496753220        2.2943839185       -0.3088640317
 C         -4.7420495820        2.3532842268       -1.1479852518
 H         -4.8453055525        3.1423674263       -1.8957697823
 H         -5.7138976320        2.2321407465       -0.6678401218
 C         -4.3840214812        1.0702772066       -1.9001272111
 H         -3.3689053213        1.1510517770       -2.2979067911
 H         -5.0634070411        0.9743089457       -2.7513474811
 C         -4.4807190905       -0.2270525030       -1.0879189704
 H         -5.4565741104       -0.2855587333       -0.6016519304
 H         -4.3924852399       -1.0629575733       -1.7880581799
 H         -3.2706686924        2.8408955694        1.9816291380
 H         -4.9681177226        3.1590560782        1.5958360177
 H         -4.5300315613        0.9481298690        2.7262551590
 H         -5.4020616812        0.8143404577        1.1865858690
 O         -2.3868362807       -0.0243435400        2.0395555896
 C         -1.2778952802       -0.7944355895        1.7313814000
 O         -0.4167002402       -0.8442239285        2.6344640701
 O         -2.1910435695       -1.7619867519       -1.6368406995
 C          0.0057461507       -2.2482568196        0.1653955209
 C          0.7881281404       -1.5883388797       -0.9451364195
 C          1.3868776308       -2.2819893800       -1.9889492891
 C          2.1194548904       -1.6031812600       -2.9480524794
 C          2.3012493496       -0.2339603399       -2.8710673102
 C          1.7123862291        0.4671375003       -1.8252768106
 C          0.9526280995       -0.2114270996       -0.8872687602
 H          0.4749976292        0.3495420905       -0.0984716805
 N          1.8845168383        1.8530208505       -1.6764677513
 S          2.1024690079        2.4514865415       -0.1260031816
 O          0.8388551078        2.5374750711        0.5618998783
 O          2.7958609071        3.7074688018       -0.3226184223
 C          3.1946050586        1.2737180226        0.6523250290
 C          4.4940968786        1.2247037331        0.1834610691
 C          5.3643923192        0.2828640139        0.7052141497
 C          4.9209689597       -0.5975520858        1.6808104601
 C          3.6177281196       -0.5302676663        2.1464299201
 C          2.7414144191        0.4129673628        1.6306426595
 H          1.7211437390        0.4731778324        1.9778978694
 H          3.2645973400       -1.2094250361        2.9063244304
 H          5.5939468901       -1.3383726352        2.0828326206
 H          6.3804263292        0.2340090144        0.3484397297
 H          4.8028072682        1.9327114429       -0.5684591013
 H          2.5250687881        2.2739671105       -2.3335277315
 H          2.8846479393        0.2899745101       -3.6123892004
 H          2.5683601508       -2.1517139902       -3.7619323891
 H          1.2740028715       -3.3514624601       -2.0560003785
 H          0.6335578607       -2.2174264787        1.0690611509
 C         -0.3625139384       -3.6886499500       -0.1204147184
 C          0.6008974423       -4.7893389692        0.2046147323
 C         -0.6331810679       -4.6047346195        1.0339785221
 H         -1.4317506174       -5.3256474201        0.9441470425
 H         -0.5280813982       -4.1933252989        2.0276926219
 H          0.6491349428       -5.6435531596       -0.4536930673
 H          1.5485959621       -4.5119402684        0.6407716422
 H         -0.9874150683       -3.7927954409       -0.9993434583
