  62
        -98.94716887
 C         -1.6026591054       -1.5658945451       -0.2429054970
 C         -2.7614053774       -1.2250093780        0.5017674350
 C         -3.5486999075       -0.0986602726       -0.0093849432
 C         -3.1599941071        0.5315219802       -1.1324870932
 C         -3.8719195020        1.6797438484       -1.7956205250
 C         -3.5314613805        3.0579933917       -1.2119628632
 C         -4.1031206602        3.3370028572        0.1783911050
 H         -3.9621754622        4.4017985958        0.3746098835
 H         -5.1772152821        3.1489235451        0.1722069043
 C         -3.4444415884        2.5328991773        1.3084049810
 H         -2.4931582539        2.1224401831        0.9618865875
 H         -3.2212231446        3.1967002049        2.1464865803
 C         -4.3034839470        1.3915629858        1.8530354929
 H         -3.7309888803        0.8693076806        2.6237282146
 H         -5.2031662148        1.7985920685        2.3199223786
 C         -4.7252290172        0.3612164775        0.7968275764
 H         -5.1384493097       -0.5096990981        1.3113700723
 H         -5.4935414474        0.7799458647        0.1471507780
 H         -2.4457910796        3.1706374835       -1.1878369259
 H         -3.9269097575        3.8080771870       -1.9008738303
 H         -3.5714888817        1.6676167134       -2.8458206695
 H         -4.9491135572        1.5186246171       -1.7430132542
 O         -2.0519166629        0.1642742146       -1.8277045755
 C         -1.2329874131       -0.8702686479       -1.3936784299
 O         -0.2396834636       -1.0588250044       -2.1221715883
 O         -3.1205568807       -1.8371811410        1.5415724318
 C         -0.7230893055       -2.6850738915        0.2930071611
 C          0.5290419510       -2.0411818457        0.8335130996
 C          0.5337417532       -1.5271921805        2.1274223045
 C          1.6293284669       -0.8356457802        2.6102012177
 C          2.7332746656       -0.6184526854        1.8038011516
 C          2.7301974015       -1.1159251408        0.5076649838
 C          1.6465917294       -1.8440303418        0.0370338135
 H          1.6567093877       -2.2140210284       -0.9756735237
 N          3.8189691614       -0.8370777252       -0.3407739874
 S          4.2861230231        0.7707807304       -0.4097699024
 O          4.8010333918        0.9694655595       -1.7467299178
 O          5.2167397260        1.0405062881        0.6593246235
 C          2.8008866943        1.7314605898       -0.1567958623
 C          2.7664007619        2.6700175454        0.8550725087
 C          1.6096692053        3.4067557479        1.0504999757
 C          0.5088003505        3.1924987723        0.2355814540
 C          0.5608890845        2.2486220659       -0.7779082267
 C          1.7151236562        1.5095997600       -0.9798865741
 H          1.7566288383        0.7627776845       -1.7571896281
 H         -0.2917233845        2.0649325881       -1.4134386216
 H         -0.3941581686        3.7625718320        0.3920533990
 H          1.5671399625        4.1416752991        1.8380585729
 H          3.6425725717        2.7995790770        1.4694827827
 H          3.6984796078       -1.2073171284       -1.2730390705
 H          3.5897683868       -0.0641025491        2.1522994326
 H          1.6208445364       -0.4501665821        3.6181971425
 H         -0.3426259618       -1.6631470480        2.7452140125
 H         -1.2806694075       -3.1152770643        1.1352553252
 C         -0.4679005773       -3.7727304658       -0.7280737336
 C          0.1012022639       -5.0819027167       -0.2716719991
 C         -1.3263713476       -5.0005425941       -0.7194904025
 H         -1.5973858443       -5.4454634531       -1.6652713586
 H         -2.1016646256       -5.0641421419        0.0298544605
 H          0.8126547036       -5.5861143138       -0.9076960416
 H          0.2958596152       -5.1983025092        0.7837475811
 H         -0.1598251617       -3.3971066599       -1.6958364690
