  62
        -98.94593825
 C          1.5775987356        1.5702029603       -0.2837023038
 C          1.4351335743        0.2055493486       -0.6341976875
 C          2.6869292493       -0.5576385018       -0.7459112394
 C          3.8602893448        0.0629240014       -0.5269723463
 C          5.2006038830       -0.6121998434       -0.5402861290
 C          5.5789027534       -1.1182704238        0.8591355571
 C          4.4738504907       -1.9192930231        1.5483127116
 H          4.8653681808       -2.2458643965        2.5142885477
 H          3.6276909855       -1.2588274512        1.7516032839
 C          3.9845113323       -3.1394760468        0.7558285210
 H          3.9029963869       -3.9887434525        1.4374542267
 H          4.7197581567       -3.4047887741       -0.0047959430
 C          2.6149637883       -2.9620087730        0.0972972667
 H          1.8930418188       -2.6069043222        0.8368084413
 H          2.2774820951       -3.9424250299       -0.2479579782
 C          2.5733884044       -2.0120410424       -1.1056409588
 H          3.3447319762       -2.2929875072       -1.8254418187
 H          1.5948819457       -2.1222192105       -1.5814483056
 H          5.8176566058       -0.2557369789        1.4858428933
 H          6.4768121803       -1.7329835986        0.7726745328
 H          5.9484451566        0.1110429511       -0.8697984236
 H          5.1771731010       -1.4418409052       -1.2440806510
 O          3.9561042015        1.3805547581       -0.2106129333
 C          2.8210691199        2.1619951470       -0.0660145707
 O          3.0475613998        3.3466830957        0.2549700337
 O          0.3259428177       -0.3486035262       -0.8408385563
 C          0.3388451427        2.4323343001       -0.1115178109
 C         -0.5278056619        1.8163791072        0.9589812043
 C         -0.0076764245        1.7017374739        2.2466480355
 C         -0.7423806765        1.1117584984        3.2559621314
 C         -2.0071537506        0.6104540740        2.9994526230
 C         -2.5353915886        0.7226045523        1.7194392589
 C         -1.8010113229        1.3318704620        0.7101204774
 H         -2.2403026514        1.4117102049       -0.2691837948
 N         -3.8194783682        0.2384707267        1.4358715658
 S         -4.1957064864       -0.4134499432       -0.0525201636
 O         -4.3204766537        0.6309795806       -1.0387307615
 O         -5.4026435238       -1.1752707098        0.2001252633
 C         -2.8865294499       -1.5402809997       -0.4957151028
 C         -2.4035621670       -2.4152188943        0.4558280374
 C         -1.4403589329       -3.3389562368        0.0875916760
 C         -0.9875779004       -3.3806654509       -1.2210851367
 C         -1.4818150250       -2.4953578560       -2.1640032004
 C         -2.4385866167       -1.5634358664       -1.7989611481
 H         -2.8397099286       -0.8479389917       -2.4993442903
 H         -1.1188849364       -2.5199550655       -3.1795087497
 H         -0.2394110376       -4.1041477642       -1.5059407658
 H         -1.0428997078       -4.0217332225        0.8218444663
 H         -2.7765862716       -2.3684285969        1.4663559847
 H         -4.2691281966       -0.2610505350        2.1885210913
 H         -2.5812562913        0.1412360748        3.7838580146
 H         -0.3262168187        1.0324228772        4.2490318402
 H          0.9869875492        2.0810466954        2.4404604043
 H          0.6909375280        3.4098892434        0.2474324708
 C         -0.3678154431        2.6236996519       -1.4360315759
 C         -1.2836870413        3.7930218661       -1.6312577704
 C          0.0423828840        3.7541172465       -2.3287543143
 H          0.0608279699        3.5884992483       -3.3955293343
 H          0.8268355590        4.4076311217       -1.9750992703
 H         -2.1813480320        3.6522827051       -2.2145702269
 H         -1.4014999512        4.4774738812       -0.8045931215
 H         -0.6328783197        1.6862121618       -1.9113967460
