  62
        -98.93679800
 C         -1.9775750624       -1.3421266255       -0.1158542406
 C         -2.4087573341       -0.2410146127       -0.8935457779
 C         -3.8133906103        0.1642826903       -0.7150653005
 C         -4.5950675903       -0.5224914911        0.1372175356
 C         -6.0174664618       -0.1855416347        0.4836186654
 C         -6.0513147071        0.9920726680        1.4786918945
 C         -6.6825631454        2.2692240768        0.9237644218
 H         -7.7677852235        2.1489390306        0.9036632972
 H         -6.4537084048        3.0769748010        1.6222730760
 C         -6.2316977256        2.6823643069       -0.4806869255
 H         -6.5481981416        3.7177659599       -0.6239286558
 H         -6.7634108487        2.0892311623       -1.2262721065
 C         -4.7259937678        2.5853424992       -0.7590005271
 H         -4.4364424104        3.4469352265       -1.3642486354
 H         -4.1574610837        2.6462954807        0.1694823129
 C         -4.2977336460        1.3267025388       -1.5367657374
 H         -5.1162319472        1.0017700253       -2.1850987219
 H         -3.4516804344        1.5859575885       -2.1802352958
 H         -6.6048766447        0.6981377684        2.3717451496
 H         -5.0278804772        1.2000099013        1.7983660924
 H         -6.4614502638       -1.0742792162        0.9325041490
 H         -6.5687977798        0.0610299139       -0.4209524844
 O         -4.1462239664       -1.5822394590        0.8586457835
 C         -2.8329692562       -2.0077494822        0.7646376590
 O         -2.5524022056       -2.9756100612        1.4991053476
 O         -1.6693571445        0.3757682736       -1.7049930086
 C         -0.5402899715       -1.8346680138       -0.1783278601
 C          0.3573016577       -0.7638284351        0.3912211521
 C          0.4448905628       -0.6192326245        1.7730229173
 C          1.2348301861        0.3674480017        2.3328081214
 C          1.9521180210        1.2333769846        1.5256153752
 C          1.8654422444        1.1003471765        0.1467173822
 C          1.0820570630        0.1002692676       -0.4140496552
 H          1.0153820080        0.0176300967       -1.4869288045
 N          2.6063468621        1.9703243064       -0.6757972518
 S          4.2501043254        2.0524519024       -0.3650233750
 O          4.4894553995        2.9472495187        0.7396093065
 O          4.8653360499        2.4206119625       -1.6207469352
 C          4.6945300447        0.3868018232        0.0959237915
 C          4.5729143015       -0.6039682966       -0.8583724410
 C          4.8460899349       -1.9143438327       -0.5029105645
 C          5.2302269252       -2.2108419139        0.7960451523
 C          5.3513365371       -1.2045596692        1.7414235368
 C          5.0778166591        0.1081688983        1.3916088706
 H          5.1553776645        0.9200276384        2.0960552845
 H          5.6514320991       -1.4384626014        2.7501382741
 H          5.4365167170       -3.2330411565        1.0718148650
 H          4.7526868095       -2.6990837752       -1.2364687698
 H          4.2771479366       -0.3382605411       -1.8605313888
 H          2.4291272689        1.8386227885       -1.6610092124
 H          2.5722532650        2.0117123711        1.9402915102
 H          1.2933307345        0.4651321224        3.4061746724
 H         -0.1236011802       -1.2902423211        2.4023342159
 H         -0.4945128090       -2.7043466611        0.4903814293
 C         -0.1518710879       -2.2739572699       -1.5750020783
 C          1.1135417458       -3.0537228693       -1.7678820321
 C         -0.2152188808       -3.7277396667       -1.9289554041
 H         -0.5388228945       -4.0018962968       -2.9220009541
 H         -0.5386250151       -4.4148871662       -1.1608048627
 H          1.7039536473       -2.8685025576       -2.6522355787
 H          1.6951655645       -3.2798487461       -0.8870307478
 H         -0.4357181901       -1.5650773858       -2.3429758945
