  62
        -98.94087219
 C          2.3151849104        0.3719111898        0.2946139705
 C          3.5516589505        0.8767340999        0.7631632002
 C          4.7034874903       -0.0251872004        0.6363045106
 C          4.5224633301       -1.2517956406        0.1130431412
 C          5.6181672100       -2.2488022209       -0.1279387284
 C          6.2082250599       -2.0963853817       -1.5370630684
 C          6.5759537602       -0.6580166619       -1.9016686291
 H          7.0080465201       -0.6775798725       -2.9045389091
 H          5.6631619803       -0.0602760918       -1.9573379594
 C          7.5614684803        0.0108629284       -0.9332523895
 H          8.0693142602       -0.7488996814       -0.3381963091
 H          8.3250552504        0.5312981580       -1.5150721997
 C          6.9296859405        1.0458858590       -0.0007754300
 H          7.7350934206        1.6066154491        0.4808888798
 H          6.3414147506        1.7564340588       -0.5868976203
 C          6.0359574604        0.4827825196        1.1113303003
 H          5.8142475606        1.2994511000        1.8045596899
 H          6.5734747103       -0.2952464202        1.6569671207
 H          7.0938549998       -2.7301620418       -1.6104039282
 H          5.4723778799       -2.4550404919       -2.2605729582
 H          6.3969816900       -2.1124967807        0.6198447316
 H          5.1991942498       -3.2512014308       -0.0257432779
 O          3.3139737500       -1.7107911606       -0.3042546686
 C          2.1818294702       -0.9117608804       -0.2333867189
 O          1.1430260701       -1.4529983004       -0.6594038586
 O          3.6832767007        2.0243858001        1.2677138296
 C          1.0880187205        1.2606681200        0.3653430901
 C         -0.0105192596        0.5958017006        1.1570421304
 C          0.2963869004        0.0126355911        2.3839586707
 C         -0.6830592197       -0.6066288183        3.1348850710
 C         -1.9892217697       -0.6560921684        2.6804748710
 C         -2.3114537697       -0.0601251489        1.4673091008
 C         -1.3248502696        0.5667745606        0.7180010004
 H         -1.5981871695        1.0151151302       -0.2213619698
 N         -3.6462168797       -0.0463795589        1.0210976308
 S         -4.0118785297       -0.2302229396       -0.6162488391
 O         -3.5135309199       -1.4958730899       -1.1085475685
 O         -3.5963864296        0.9481820000       -1.3325660697
 C         -5.7925795697       -0.2664496193       -0.5142881691
 C         -6.4640681696        0.9311242809       -0.3555514396
 C         -7.8452315696        0.9156663812       -0.2458685396
 C         -8.5287237697       -0.2903563087       -0.2962143890
 C         -7.8417021099       -1.4838440589       -0.4584686584
 C         -6.4597132399       -1.4753041292       -0.5674256485
 H         -5.8845496701       -2.3773101994       -0.7027794480
 H         -8.3759598701       -2.4193268589       -0.5009315880
 H         -9.6038928397       -0.2999419385       -0.2112528490
 H         -8.3830460594        1.8418275313       -0.1225388500
 H         -5.8911420294        1.8431971708       -0.3305449301
 H         -4.2334007698       -0.6617489585        1.5692224511
 H         -2.7528756498       -1.1488978480        3.2631886313
 H         -0.4276784698       -1.0624622879        4.0798607012
 H          1.3189756104        0.0432906911        2.7356162606
 H          1.4093204607        2.1598595603        0.9132924196
 C          0.6601997406        1.6701797994       -1.0285884301
 C         -0.0205703792        2.9853748894       -1.2568749607
 C          1.3897345907        2.7813374290       -1.7199607307
 H          1.5802908707        2.6926443485       -2.7790626006
 H          2.1830734908        3.2676832991       -1.1710561309
 H         -0.8083118693        3.0327150292       -1.9939701907
 H         -0.1841869191        3.6169597799       -0.3967838710
 H          0.3484617204        0.8241132792       -1.6331653797
