  62
        -98.93683330
 C         -1.9506631068       -0.8946163367       -0.0215319420
 C         -2.2843156085        0.0866329118        0.9387608620
 C         -2.6177084149        1.4230811855        0.4217341625
 C         -2.5568622111        1.6505087799       -0.9015374844
 C         -2.8032665271        2.9415447384       -1.6419190866
 C         -4.0098765862        3.7875101275       -1.2108686772
 C         -5.2138731165        2.9869129942       -0.6932416053
 H         -6.1117712205        3.3182981090       -1.2179267490
 H         -5.0797475724        1.9264084076       -0.9128369772
 C         -5.4524590079        3.1709958467        0.8073912313
 H         -5.3284851183        4.2274997340        1.0544831781
 H         -6.4863286157        2.9005110775        1.0346098035
 C         -4.5563113352        2.3362669829        1.7216439094
 H         -4.7421887464        2.6475317360        2.7524040547
 H         -4.8337675280        1.2810582890        1.6506096475
 C         -3.0475851996        2.4374193246        1.4423037966
 H         -2.5145587219        2.1819051605        2.3626506651
 H         -2.7650428764        3.4460812678        1.1499614970
 H         -3.7007967385        4.4976767107       -0.4451716554
 H         -4.3095660805        4.3740938830       -2.0808980236
 H         -2.9153967764        2.6497920871       -2.6889113787
 H         -1.8942651034        3.5465176864       -1.5720829321
 O         -2.2089287401        0.6792980616       -1.7927341159
 C         -1.8961387034       -0.6066467298       -1.3838031451
 O         -1.5999008347       -1.3836880819       -2.3120124357
 O         -2.2979437987       -0.1423508845        2.1801761343
 C         -1.5878275318       -2.2908595811        0.4428179813
 C         -0.1931707660       -2.6643899221        0.0012796701
 C          0.1595231667       -3.9611255992       -0.3522102098
 C          1.4600088654       -4.2572310729       -0.7221432602
 C          2.4320510704       -3.2752861097       -0.7460787990
 C          2.0884517090       -1.9722939815       -0.3991115728
 C          0.7891644576       -1.6826478777       -0.0174680064
 H          0.5374384922       -0.6689986115        0.2609737927
 N          3.0432057614       -0.9453137018       -0.4652581531
 S          2.8421604834        0.4708315783        0.4187292179
 O          2.5896689898        0.1674897091        1.8106050316
 O          1.8704472436        1.3060749491       -0.2437350703
 C          4.4705387897        1.1732760162        0.2335562054
 C          5.3980465481        1.0161587946        1.2460859418
 C          6.6714548612        1.5367331201        1.0758858411
 C          6.9950271531        2.1987619363       -0.0988458032
 C          6.0531984634        2.3496818900       -1.1060124018
 C          4.7780190279        1.8325210061       -0.9417026660
 H          4.0102390824        1.9311776757       -1.6915943786
 H          6.3070028173        2.8675211889       -2.0168440584
 H          7.9865056026        2.6024908331       -0.2295663517
 H          7.4044257462        1.4238050250        1.8582800615
 H          5.0976483291        0.5007391403        2.1441102740
 H          3.9971298495       -1.2775738445       -0.4529387505
 H          3.4441231849       -3.5065324234       -1.0404229439
 H          1.7199081234       -5.2688207225       -0.9947403433
 H         -0.5854759797       -4.7397781880       -0.3396697561
 H         -1.5920185196       -2.2434004669        1.5434278019
 C         -2.6417223114       -3.2838691710       -0.0061080889
 C         -2.9884294427       -4.4675551154        0.8455011873
 C         -3.9500144163       -3.3252740234        0.7235406619
 H         -4.8554952080       -3.4668516439        0.1529006673
 H         -4.0645167418       -2.6596670482        1.5669514489
 H         -3.2374224947       -5.3978863263        0.3575682004
 H         -2.4600769241       -4.5836499602        1.7798147552
 H         -2.6648896545       -3.4000855583       -1.0840563280
