  62
        -98.94469771
 C         -2.5688564728       -0.1806371958       -0.3405518210
 C         -2.1333340053       -0.7189333516        0.8950724690
 C         -1.6615868452       -2.1105910274        0.8557119536
 C         -1.6582860422       -2.7733811797       -0.3146826809
 C         -1.1901093004       -4.1874155016       -0.5033769589
 C          0.2926879034       -4.2478562167       -0.8915756627
 C          1.2076212970       -3.4264311096        0.0171412520
 H          2.2339943575       -3.5978887534       -0.3172551447
 H          1.0051328720       -2.3622135037       -0.1284646350
 C          1.0934638259       -3.7611777698        1.5108954539
 H          0.6356045175       -4.7435187004        1.6383561408
 H          2.0999705817       -3.8124519175        1.9312030399
 C          0.3231719048       -2.7240671983        2.3311693283
 H          0.6960837411       -1.7257307855        2.0900388887
 H          0.5240596237       -2.9085556848        3.3901946506
 C         -1.2000879375       -2.7233261245        2.1475114043
 H         -1.5875915126       -3.7394968258        2.2537088005
 H         -1.6302521556       -2.1047016492        2.9406270137
 H          0.6081720725       -5.2932933958       -0.8787206526
 H          0.4009893822       -3.8705053852       -1.9114389040
 H         -1.3575223189       -4.7426252786        0.4176715548
 H         -1.7825470744       -4.6379912439       -1.3021333559
 O         -2.0710758968       -2.2174961529       -1.4844882313
 C         -2.5097185310       -0.9052628483       -1.5289331401
 O         -2.8278076530       -0.5062524775       -2.6705142941
 H         -0.4680588208        1.0192884541       -1.0750524489
 C         -0.6328685567        1.8921619928       -0.4557574813
 C         -1.9169664842        2.1856660001       -0.0117905951
 C         -2.0986209923        3.3247818297        0.7609324936
 C         -1.0206760580        4.1285868776        1.0953497507
 C          0.2602114003        3.8066818082        0.6855646377
 C          0.4493031702        2.6737846542       -0.0956551716
 N          1.7674030988        2.2835524907       -0.4726516645
 S          2.0548767986        0.6302472213       -0.5123821684
 O          1.7482199634        0.0653611180       -1.8137984491
 O          1.4111846566        0.0408372182        0.6315584479
 C          3.8215077892        0.6216902808       -0.2704751420
 C          4.3022669520        0.9199886745        0.9901472350
 C          5.6718090534        0.9500120365        1.1964036845
 C          6.5346168400        0.6838309064        0.1432187811
 C          6.0378747077        0.3838603854       -1.1157646559
 C          4.6680291660        0.3533095627       -1.3278538428
 H          4.2359901905        0.1182198396       -2.2874597294
 H          6.7102314307        0.1742063585       -1.9321012065
 H          7.6005813374        0.7079746362        0.3057657821
 H          6.0611157703        1.1803455379        2.1750162221
 H          3.5918437540        1.1120781640        1.7774840479
 H          2.1103524063        2.7393726681       -1.3062705221
 H          1.1076402224        4.4124460197        0.9622529211
 H         -1.1814744476        5.0091595837        1.6984302855
 H         -3.0865327606        3.5805812345        1.1083761696
 C         -3.0392439929        1.2608781227       -0.4186878665
 H         -3.2618764468        1.4478121349       -1.4806868699
 C         -4.3059110486        1.4582249915        0.3879123619
 C         -5.3201591907        2.4774005918       -0.0344875315
 C         -5.6111584848        1.0170846797       -0.2007698008
 H         -6.3398480850        0.5559337580        0.4485733684
 H         -5.5870638193        0.5981856887       -1.1966658974
 H         -5.1103584229        3.0540882190       -0.9227388106
 H         -5.8553340490        3.0196230805        0.7303243836
 H         -4.1520251499        1.2914281544        1.4475828249
 O         -2.1580151026       -0.0773176972        1.9775224358
