  62
        -98.94113481
 C         -1.8985696420       -0.9163794377        0.2673620836
 C         -2.3119908287        0.0767542349        1.1895222794
 C         -2.5521011600        1.4169162670        0.6409623023
 C         -2.3112281723        1.6429854718       -0.6630438182
 C         -2.5495847320        2.9478901533       -1.3655462336
 C         -3.9661788915        3.0138763051       -1.9539184092
 C         -5.0642394714        2.6232454505       -0.9646244204
 H         -6.0206125002        2.7329009795       -1.4801967320
 H         -4.9544481002        1.5663390619       -0.7111979228
 C         -5.0802159788        3.4537729791        0.3262126967
 H         -4.5133382348        4.3739970775        0.1813676702
 H         -6.1110405206        3.7379206793        0.5473348974
 C         -4.5466673217        2.7207498586        1.5584575763
 H         -4.7991801863        3.3119996727        2.4425659441
 H         -5.0483828331        1.7548025057        1.6566820982
 C         -3.0316712447        2.4807249973        1.5883052321
 H         -2.5044546690        3.4202899884        1.4084680598
 H         -2.7681778806        2.1279872735        2.5900257013
 H         -4.0168352182        2.3348280241       -2.8080886990
 H         -4.1425299947        4.0287863674       -2.3145829175
 H         -2.3967930085        3.7641162727       -0.6618022412
 H         -1.8208557819        3.0372468074       -2.1731709645
 O         -1.8640592890        0.6817445494       -1.5085241662
 C         -1.6324802348       -0.6143911646       -1.0698664679
 O         -1.2134715929       -1.3783478571       -1.9596354824
 H          0.6366958528       -0.9206286675        1.0748477269
 C          0.8215599678       -1.8572957929        0.5667627807
 C         -0.2329460820       -2.7344395446        0.3419481252
 C          0.0270722503       -3.9325834352       -0.3085044371
 C          1.3082231935       -4.2257701692       -0.7440300425
 C          2.3447637176       -3.3312915543       -0.5566243385
 C          2.0957709600       -2.1328086763        0.1042823172
 N          3.1280698202       -1.2028127398        0.3288490928
 S          2.7363304856        0.4400855059        0.2876772727
 O          2.2085433108        0.8214522317        1.5752675294
 O          1.9108532593        0.7429441349       -0.8599042463
 C          4.3645330269        1.1399513267        0.0842045981
 C          5.1868919620        1.2347065767        1.1912371916
 C          6.4663830401        1.7430488079        1.0333495158
 C          6.9002573962        2.1451732805       -0.2213518132
 C          6.0630860138        2.0460631913       -1.3224074830
 C          4.7825316454        1.5368002892       -1.1717395938
 H          4.0931169464        1.4462138402       -1.9961146990
 H          6.4011568541        2.3623036963       -2.2960388583
 H          7.8962340765        2.5410338987       -0.3416356066
 H          7.1190362407        1.8239991993        1.8874857438
 H          4.8013491245        0.9178175178        2.1461341946
 H          3.9487955699       -1.3945272586       -0.2303741420
 H          3.3366405024       -3.5514824842       -0.9211910581
 H          1.4966474995       -5.1569327122       -1.2567034877
 H         -0.7761099397       -4.6244170851       -0.5017035525
 C         -1.5993712878       -2.3024306547        0.8121654560
 H         -1.5473253620       -2.1556841954        1.9051485785
 C         -2.6892405245       -3.3343912741        0.5663302343
 C         -4.1092530946       -2.9159584543        0.3319488900
 C         -3.3170906017       -3.5324330430       -0.7796307094
 H         -3.5648265348       -4.5384699869       -1.0853800279
 H         -2.9764751440       -2.9003417462       -1.5842391302
 H         -4.8972472025       -3.4951914863        0.7893767176
 H         -4.3154058822       -1.8562454599        0.2853517409
 H         -2.5481339840       -4.2238711403        1.1728053693
 O         -2.4705647269       -0.1490983462        2.4208033671
