  62
        -98.93212910
 C         -2.3925043081       -0.6098098504        0.5215710649
 C         -3.2189651639       -0.4818321046       -0.6197531126
 C         -4.2869513406        0.5372531634       -0.5456141342
 C         -4.4158275412        1.2923961869        0.5599595668
 C         -5.3617049724        2.4281135079        0.8912810163
 C         -6.6016916294        2.6875597555        0.0397530295
 C         -7.6721256345        1.5997992215        0.1214226983
 H         -8.1175476263        1.6252159007        1.1191790194
 H         -8.4575261422        1.8381234829       -0.5991331375
 C         -7.1844132905        0.1748453595       -0.1280702434
 H         -8.0441890299       -0.4940890688       -0.0328580022
 H         -6.4697424685       -0.1089942147        0.6472761087
 C         -6.5544859938       -0.0704360595       -1.4977213598
 H         -7.2463676598        0.2432247506       -2.2818130080
 H         -6.3999891383       -1.1480268238       -1.6001361236
 C         -5.1984644345        0.6156234646       -1.7367263538
 H         -4.6901308651        0.0840083850       -2.5464407918
 H         -5.3274625637        1.6473623063       -2.0545162488
 H         -7.0454643582        3.6150500442        0.4118453304
 H         -6.3186579406        2.8672304410       -0.9931534629
 H         -5.6683769480        2.2658535135        1.9295575491
 H         -4.7460674993        3.3344857493        0.8910333539
 O         -3.5795072560        1.1444438084        1.6302810119
 C         -2.5692352025        0.2033316287        1.6424659763
 O         -1.9052539243        0.1794787683        2.6991229430
 O         -3.0884546060       -1.1667226207       -1.6656334650
 C         -1.2527454157       -1.6107211073        0.6207462410
 C          0.0158903277       -1.0090538681        0.0729865058
 C          0.0724997649       -0.4962785711       -1.2196672037
 C          1.2441624053        0.0579680888       -1.7009674087
 C          2.3763286539        0.1216854169       -0.9067947617
 C          2.3298170580       -0.3830471086        0.3853291462
 C          1.1535304391       -0.9481843727        0.8634948523
 H          1.1174213867       -1.3295720813        1.8753884143
 N          3.4641894621       -0.2983928466        1.2061840309
 S          4.9647546493       -0.7180262342        0.5878544341
 O          4.8484852399       -1.7212336600       -0.4445507518
 O          5.7591000466       -1.0731719879        1.7431771146
 C          5.5862877226        0.8018303511       -0.0999466119
 C          5.6084056946        1.9217624257        0.7079861040
 C          6.0998985286        3.1097435108        0.1911854717
 C          6.5615890084        3.1568301565       -1.1159307468
 C          6.5362360164        2.0227899198       -1.9130088052
 C          6.0445606704        0.8314004488       -1.4024226990
 H          6.0003359253       -0.0734556526       -1.9875484044
 H          6.8959291503        2.0614652176       -2.9286946852
 H          6.9431191751        4.0831436740       -1.5155330942
 H          6.1205716312        3.9938480119        0.8079268829
 H          5.2428542862        1.8442858674        1.7184288370
 H          3.3313967747       -0.6650656694        2.1371062718
 H          3.2899028873        0.5555888429       -1.2789514488
 H          1.2763845589        0.4496836153       -2.7063874034
 H         -0.8106343705       -0.5404913658       -1.8387544224
 H         -1.1041413044       -1.7647784585        1.7015432297
 C         -1.5896008447       -2.9678295622        0.0177207698
 C         -0.9200157851       -3.5362656213       -1.1935349001
 C         -0.6191900507       -4.1037151231        0.1589145645
 H         -0.9970567354       -5.0828839485        0.4115205253
 H          0.3471804421       -3.8799095265        0.5871373739
 H         -1.5291031797       -4.1094725857       -1.8756258081
 H         -0.1537895344       -2.9540211396       -1.6802530971
 H         -2.6394722213       -3.2132369306        0.1400282100
