  62
        -98.94103500
 C          2.5685859404        0.2081651278        0.5034266391
 C          2.2250745122       -0.3378142097       -0.7583737085
 C          2.0440730653       -1.7969127967       -0.7994306924
 C          2.2115065074       -2.5190297809        0.3217744374
 C          2.0697473744       -4.0105499659        0.4168860033
 C          0.6520869733       -4.4292875977        0.8263645261
 C         -0.4573941083       -3.7709561431        0.0060127163
 H         -1.4039899704       -4.2012887166        0.3421876876
 H         -0.4983117137       -2.7037093938        0.2361692706
 C         -0.3268703872       -3.9519700861       -1.5125535496
 H          0.3301244459       -4.7945890243       -1.7335928554
 H         -1.3121062600       -4.1925551301       -1.9172158286
 C          0.1678888320       -2.7075889002       -2.2534149338
 H         -0.3884781302       -1.8346191989       -1.9012694071
 H         -0.0464823841       -2.8341946531       -3.3182044817
 C          1.6662752439       -2.4054047999       -2.1199186721
 H          2.2464530354       -3.3108257438       -2.3121221006
 H          1.9273240718       -1.6608491543       -2.8777212421
 H          0.5779915690       -5.5152146666        0.7359268507
 H          0.5013947795       -4.1642627275        1.8757342801
 H          2.3254808505       -4.4515339590       -0.5448890068
 H          2.7740945297       -4.3705666561        1.1695849869
 O          2.5236207551       -1.9591536111        1.5203012615
 C          2.6671196345       -0.5873037833        1.6458240279
 O          2.8892414280       -0.2021130786        2.8135808908
 H          0.1602258546        1.0874171793        0.8707183416
 C          0.3015014386        1.9426980871        0.2244323025
 C          1.5874450308        2.4270968540        0.0129104502
 C          1.7493455804        3.5406303251       -0.7989144309
 C          0.6482000626        4.1386890798       -1.3897993567
 C         -0.6231617689        3.6306257375       -1.2066738050
 C         -0.7938289168        2.5051431304       -0.4046551231
 N         -2.0633516985        1.9182960268       -0.2693458131
 S         -2.3218917051        0.5745175186        0.6958375950
 O         -2.1777612371        0.9099920436        2.0985093745
 O         -1.5163966065       -0.5147656240        0.2087919833
 C         -4.0385398980        0.2704318147        0.3256348859
 C         -4.3518545028       -0.4860609697       -0.7873865062
 C         -5.6849705803       -0.7021567295       -1.0980395674
 C         -6.6777252829       -0.1598081399       -0.2954977137
 C         -6.3485209678        0.5951080162        0.8202102329
 C         -5.0168573286        0.8146878685        1.1359564992
 H         -4.7139066441        1.3837924382        2.0001659316
 H         -7.1223374012        1.0118489274        1.4445031499
 H         -7.7145181207       -0.3296831906       -0.5392075630
 H         -5.9437300205       -1.2920387686       -1.9624796403
 H         -3.5454411891       -0.8932613594       -1.3752631235
 H         -2.8361212981        2.5666572460       -0.2800342038
 H         -1.4755975304        4.0843133778       -1.6875580895
 H          0.7869432962        5.0075142892       -2.0154101739
 H          2.7354867687        3.9327969344       -0.9855709839
 C          2.7197255805        1.7068405109        0.7059888464
 H          2.5913373041        1.8577779484        1.7921674656
 C          4.0952658141        2.2538401049        0.3513964957
 C          5.2965177903        1.3589248613        0.2952986275
 C          4.7506701771        1.9596539989       -0.9632866674
 H          5.3169845087        2.7455151330       -1.4413363723
 H          4.2161543606        1.3219800655       -1.6490602609
 H          5.1433749338        0.3033454115        0.4689536883
 H          6.2309303462        1.7340411958        0.6854136861
 H          4.2594206276        3.2425423457        0.7689249922
 O          2.0894161018        0.3449549479       -1.8065611440
