  62
        -98.93275677
 C         -2.6738989101       -1.3096102593       -0.1491318799
 C         -2.6484076399       -0.1195237292       -0.9137291099
 C         -3.9125085098        0.6340927610       -0.9843377298
 C         -4.9998031099        0.1652690411       -0.3489880998
 C         -6.3882642698        0.7528090314       -0.3145137697
 C         -6.5067118595        2.2689249814       -0.1002258797
 C         -5.4027659594        2.8935092812        0.7658147203
 H         -5.8656756492        3.5011079212        1.5457651004
 H         -4.8262793695        2.1112871711        1.2629995203
 C         -4.4567509692        3.7956096110       -0.0308349897
 H         -3.9540103291        4.4750719609        0.6616909603
 H         -5.0501472992        4.4063407012       -0.7148847596
 C         -3.3681570794        3.0718817509       -0.8228086897
 H         -2.8498276593        3.8129263808       -1.4361171297
 H         -2.6270818294        2.6510564407       -0.1370610298
 C         -3.8583299496        1.9342336110       -1.7332904798
 H         -4.8148711096        2.1777152012       -2.1891399397
 H         -3.1174047697        1.7963385209       -2.5252940698
 H         -7.4775258695        2.4466528016        0.3653555504
 H         -6.5253709795        2.7727925714       -1.0656174096
 H         -6.8966418399        0.4821207415       -1.2443218197
 H         -6.8984559098        0.2273025915        0.4961705403
 O         -4.9810178601       -0.9952208689        0.3669335802
 C         -3.8269562002       -1.7464117191        0.5007596401
 O         -3.9542481803       -2.7648029791        1.2111120101
 H          1.0664276699       -1.2489833799       -0.8429438100
 C          0.8229692999       -0.9147253199        0.1532664200
 C         -0.3797313401       -1.2850868897        0.7306016700
 C         -0.6668610400       -0.8371823497        2.0179724701
 C          0.2225084602       -0.0301995498        2.6999442900
 C          1.4141571702        0.3568983900        2.1110611300
 C          1.7117530401       -0.0854831801        0.8299443500
 N          2.9013070602        0.3280970398        0.2040433800
 S          4.3270158002        0.3471491895        1.1049494799
 O          4.5283065600       -0.9324787606        1.7492371499
 O          4.3081222704        1.4931564695        1.9788300899
 C          5.5269211702        0.5943543193       -0.1880993501
 C          6.2438797700       -0.4832631908       -0.6716572702
 C          7.1552488900       -0.2760273809       -1.6953776302
 C          7.3299848702        0.9969586191       -2.2168433102
 C          6.6021075404        2.0687000492       -1.7210324101
 C          5.6905521904        1.8689224993       -0.6968116301
 H          5.1086171306        2.6717923294       -0.2752499800
 H          6.7422932306        3.0570046492       -2.1282059901
 H          8.0399973102        1.1555190290       -3.0131453502
 H          7.7245363198       -1.1061970510       -2.0814737002
 H          6.0807026698       -1.4537960608       -0.2311616902
 H          3.0424126401       -0.1341739302       -0.6838984901
 H          2.1138330604        0.9913968998        2.6302371600
 H         -0.0132653397        0.3073187402        3.6984677001
 H         -1.6036529700       -1.1302820295        2.4737391501
 C         -1.4097445003       -2.1342268295        0.0249119800
 H         -1.6793001604       -2.9650861695        0.6921987500
 C         -0.9500021204       -2.7024302595       -1.3002423700
 C         -0.0589944406       -3.9069297297       -1.3261438801
 C         -1.4922074307       -4.0250356994       -1.7478823700
 H         -1.7128069207       -4.1634686094       -2.7956519700
 H         -2.1827333007       -4.5285950393       -1.0869465100
 H          0.2278542793       -4.3356815898       -0.3776575301
 H          0.7043208193       -3.9698437198       -2.0869224901
 H         -0.8078070803       -1.9413919995       -2.0582257600
 O         -1.6271747599        0.2957329506       -1.5197834399
