  62
        -98.94869771
 C          1.4156625087        1.0139006318        0.9217120348
 C          2.4385901531        0.4720829531        0.1075853560
 C          2.7846302415       -0.9310892468        0.3670500050
 C          2.0843549924       -1.6383567219        1.2709980027
 C          2.2939127704       -3.0866814996        1.6208508383
 C          1.6237621049       -4.0595919170        0.6405516651
 C          2.3273923811       -4.2120776450       -0.7087014877
 H          3.3906827065       -4.3962714742       -0.5484139590
 H          1.9097959358       -5.1003428561       -1.1873991600
 C          2.1423330619       -3.0168788062       -1.6540862121
 H          1.2834392707       -2.4236029085       -1.3313334878
 H          1.9088701630       -3.3827058483       -2.6574827939
 C          3.3637111830       -2.1063302701       -1.7805180605
 H          4.1781540331       -2.6510266364       -2.2652053608
 H          3.0927446301       -1.2624575313       -2.4202388632
 C          3.8809111596       -1.5448082326       -0.4510496709
 H          4.3821007414       -2.3286030148        0.1171901200
 H          4.6048413492       -0.7569670679       -0.6757350154
 H          0.5947995537       -3.7332149692        0.4675814108
 H          1.5893048436       -5.0394831065        1.1232249296
 H          3.3614380344       -3.3027123503        1.6774849643
 H          1.8562776848       -3.2354264044        2.6105583382
 O          1.0804755220       -1.0929747325        2.0069914929
 C          0.7174420698        0.2335862934        1.8437483303
 O         -0.2266720173        0.5996817311        2.5741715373
 H         -1.1010586050        0.8862071932        0.0369823530
 C         -0.8157721279        1.5054634007       -0.8007579942
 C          0.2069952458        2.4325457397       -0.6383261609
 C          0.5491259008        3.2402538698       -1.7131879341
 C         -0.0970699769        3.0875667052       -2.9293002301
 C         -1.0696630266        2.1201702273       -3.1038297041
 C         -1.4289309250        1.3171213181       -2.0260371936
 N         -2.4072445915        0.3189931871       -2.1441058013
 S         -2.2540030143       -1.0882412647       -1.2466717748
 O         -0.8734477611       -1.4608992437       -1.0463248133
 O         -3.0662309476       -2.0533401059       -1.9614081557
 C         -3.0477671045       -0.7247286375        0.3029309531
 C         -4.1836723940        0.0607066902        0.3016981285
 C         -4.8251954871        0.3085026029        1.5039632860
 C         -4.3269386873       -0.2346340624        2.6787814093
 C         -3.1903455662       -1.0267482113        2.6617100776
 C         -2.5433785575       -1.2770160776        1.4623373596
 H         -1.6439056356       -1.8710614792        1.4135554192
 H         -2.7936448116       -1.4409261346        3.5744632599
 H         -4.8245942063       -0.0375441379        3.6152707805
 H         -5.7086406744        0.9263087497        1.5228640658
 H         -4.5381982039        0.4685958179       -0.6302561179
 H         -2.7330607750        0.1399195438       -3.0826032265
 H         -1.5438255604        1.9804849127       -4.0633437010
 H          0.1797204276        3.7164785705       -3.7619508725
 H          1.3314441236        3.9735289446       -1.6069152005
 C          0.9121855494        2.4325202157        0.6972149238
 H          0.1613989400        2.6150013150        1.4794279777
 C          2.0143098852        3.4592781406        0.8224757129
 C          1.6686446779        4.8843786364        1.1313606289
 C          2.3256068664        4.0300069323        2.1722599571
 H          3.3577021144        4.2223959333        2.4238445249
 H          1.7295870767        3.6892762604        3.0064733886
 H          2.2507541295        5.6678388984        0.6704714943
 H          0.6250261605        5.1277944080        1.2612942586
 H          2.8478984200        3.2655028415        0.1587048942
 O          3.0450204276        1.1195474564       -0.7861899072
