  62
        -98.93476220
 C         -2.3067413629        0.2456499176       -0.2088795165
 C         -3.4845770977        0.5957804624       -0.9071900449
 C         -4.7119917390       -0.1307646927       -0.5385483994
 C         -4.6574616844       -1.0710242085        0.4235711586
 C         -5.7243157667       -1.9934348870        0.9761095113
 C         -7.2024049142       -1.7389309775        0.6919225685
 C         -7.7705821384       -0.4766741538        1.3396624386
 H         -8.7965413809       -0.3452393217        0.9890318127
 H         -7.8053854970       -0.6268714838        2.4216489643
 C         -6.9882439464        0.8080779584        1.0788234642
 H         -5.9902308338        0.7252619613        1.5141600304
 H         -7.4991635805        1.6223056846        1.5999919774
 C         -6.8568334006        1.2074985529       -0.3895474039
 H         -6.4221263476        2.2102910148       -0.4196598708
 H         -7.8467472244        1.2585490670       -0.8470149369
 C         -5.9662643360        0.2923107068       -1.2478002265
 H         -6.5169442925       -0.5744404858       -1.6052113235
 H         -5.6442429842        0.8612646753       -2.1248735565
 H         -7.7484096072       -2.5932976891        1.1011491655
 H         -7.3847290583       -1.7330397996       -0.3785721045
 H         -5.5663056860       -2.0137001946        2.0590382825
 H         -5.4688050130       -2.9939079496        0.6098569227
 O         -3.4907643533       -1.3816643804        1.0629405075
 C         -2.2975182577       -0.7402326604        0.7754101963
 O         -1.3282721753       -1.1328607162        1.4520090131
 O         -3.5104624568        1.4721146818       -1.8133666730
 C         -1.0127584406        0.9658969805       -0.5377814217
 C          0.0409211357       -0.0207773480       -0.9756606826
 C         -0.2665320929       -0.9250505836       -1.9900890731
 C          0.6693355361       -1.8410651252       -2.4277329737
 C          1.9380185270       -1.8667594818       -1.8748632438
 C          2.2552539282       -0.9696876807       -0.8627459224
 C          1.3094433506       -0.0540444181       -0.4205923094
 H          1.5852362723        0.6287020009        0.3651883261
 N          3.5249513359       -0.9877517085       -0.2638887147
 S          4.2008232860        0.4693638805        0.2520858128
 O          3.6893500349        0.7917498796        1.5603391459
 O          4.0349570674        1.4812191346       -0.7671337482
 C          5.9164018288       -0.0022425634        0.3791148726
 C          6.7814214123        0.2944798041       -0.6572983523
 C          8.1063932296       -0.1004892197       -0.5587001214
 C          8.5409358084       -0.7839113633        0.5670325862
 C          7.6611586349       -1.0741018367        1.5994937413
 C          6.3354143414       -0.6812197062        1.5078853726
 H          5.6179376605       -0.8761755736        2.2880221599
 H          8.0032737651       -1.6028809871        2.4744782078
 H          9.5726446317       -1.0891802166        0.6422348494
 H          8.7935557698        0.1269086884       -1.3577282999
 H          6.4006533002        0.8352135373       -1.5088067825
 H          4.1922249055       -1.5538018264       -0.7698272198
 H          2.6713245191       -2.5806471832       -2.2180442092
 H          0.4135708370       -2.5369936394       -3.2127024197
 H         -1.2553853855       -0.8991832288       -2.4280283426
 H         -1.2475816521        1.6148029609       -1.3953789060
 C         -0.5817911959        1.8365112472        0.6232891441
 C          0.2761333182        3.0414048997        0.3827854906
 C         -1.1629809927        3.2099930069        0.7648882099
 H         -1.3954596174        3.5721597550        1.7550682959
 H         -1.8589877925        3.5339546948        0.0049041447
 H          1.0397371096        3.2812424896        1.1080670711
 H          0.5639707224        3.2538655698       -0.6360591823
 H         -0.4148876870        1.2674596772        1.5319967401
