  62
        -98.94447298
 C          2.6507303002        1.2934640100        0.1100020793
 C          2.5688145099        0.2938957700       -0.8896653307
 C          3.5409404497       -0.8044820402       -0.7790211808
 C          4.4410044099       -0.7960756003        0.2205067891
 C          5.4485462297       -1.8772844405        0.4802323590
 C          4.8916462196       -2.9330628804        1.4454416192
 C          3.5012627995       -3.4446419001        1.0675447194
 H          2.7787498296       -2.6307280200        1.1667301894
 H          3.2249748494       -4.2072024600        1.7989892894
 C          3.4041759792       -4.0352816202       -0.3460055906
 H          2.8382699690       -4.9679902701       -0.2973898805
 H          4.4010230691       -4.2791307304       -0.7153812107
 C          2.6935736592       -3.1387501401       -1.3620968305
 H          1.7288946193       -2.8176639599       -0.9582415604
 H          2.4880690590       -3.7349998601       -2.2555061505
 C          3.4701827794       -1.8942573803       -1.8113152307
 H          2.9403131094       -1.4644043002       -2.6665302307
 H          4.4712439093       -2.1836062305       -2.1375554108
 H          4.8338541598       -2.4936015903        2.4438166891
 H          5.5907577795       -3.7703732305        1.4820303391
 H          5.7264217995       -2.3425947606       -0.4633188210
 H          6.3342289798       -1.4216985907        0.9260411489
 O          4.5021211002        0.1907034597        1.1499853891
 C          3.6007546104        1.2401517399        1.1336241691
 O          3.7485423207        2.0565802099        2.0644492691
 H         -0.3727283799        1.6662116905       -1.4928455104
 C         -0.6059685498        1.5373756606       -0.4479781403
 C          0.3165114904        1.9134705005        0.5153840595
 C          0.0052171606        1.7014743806        1.8556986896
 C         -1.2015917795        1.1334180208        2.2179237898
 C         -2.1177463297        0.7526694310        1.2522801099
 C         -1.8076177798        0.9415305308       -0.0871114801
 N         -2.7217422501        0.5399986210       -1.0766784100
 S         -3.3859872103       -0.9978709889       -0.9578015898
 O         -2.5130347404       -1.9090322790       -0.2541967499
 O         -3.7447777206       -1.3622732089       -2.3111725498
 C         -4.8779009302       -0.7314571886       -0.0208040196
 C         -5.7757201400        0.2106588816       -0.4835572696
 C         -6.9425959999        0.4309597718        0.2303744506
 C         -7.1924402499       -0.2923366381        1.3871999806
 C         -6.2837908600       -1.2383101182        1.8360763706
 C         -5.1140092201       -1.4627899185        1.1266340504
 H         -4.3761040902       -2.1840770586        1.4407328404
 H         -6.4799503200       -1.8006648982        2.7348489506
 H         -8.1006179698       -0.1179345679        1.9422941308
 H         -7.6518451898        1.1653294219       -0.1159206994
 H         -5.5449918601        0.7484365615       -1.3878495196
 H         -2.3886080801        0.7073469008       -2.0156953400
 H         -3.0548904798        0.2969191211        1.5269189801
 H         -1.4312336094        0.9800912309        3.2615094198
 H          0.7317335807        1.9747805205        2.6086065695
 C          1.6752255905        2.4605576702        0.1513530893
 H          2.0137089607        3.1043238602        0.9737473093
 C          1.6902673905        3.2650422501       -1.1314692307
 C          1.0615572507        4.6250421702       -1.1464591907
 C          2.5520288607        4.4872450500       -1.2163986309
 H          3.0478991706        4.7025805198       -2.1510742810
 H          3.1326067208        4.7507387999       -0.3443401610
 H          0.6285829209        4.9819880204       -0.2242610707
 H          0.5322549606        4.9397729803       -2.0327557006
 H          1.6096855502        2.6577462301       -2.0240452007
 O          1.7380141398        0.3071803701       -1.8367932406
