  62
        -98.94608733
 C          1.4160840738        0.8472059432       -0.0866948183
 C          2.4968530820        0.8405464142        0.8330301080
 C          3.4521513167       -0.2674625062        0.7198668063
 C          3.2452432077       -1.2157024771       -0.2117175702
 C          4.1589014154       -2.3776979555       -0.4718876778
 C          5.2100427320       -2.0325430735       -1.5361714701
 C          5.9326237647       -0.7092405359       -1.2834890886
 H          5.2162133662        0.1101077301       -1.3760885360
 H          6.6696684728       -0.5841335770       -2.0795933088
 C          6.6317911632       -0.6182364865        0.0800685185
 H          7.6295627262       -0.1989345618       -0.0652170842
 H          6.7580232504       -1.6172341746        0.4989172914
 C          5.9186905660        0.2715668515        1.0998845376
 H          5.7065113638        1.2453104472        0.6514676369
 H          6.5986435297        0.4389145877        1.9394381690
 C          4.6116525586       -0.2878739598        1.6758998779
 H          4.3178178858        0.3497999844        2.5149177099
 H          4.7788387549       -1.2981913353        2.0555954611
 H          4.7118404618       -1.9716597733       -2.5065226363
 H          5.9376775417       -2.8450922884       -1.5783123247
 H          4.6471911275       -2.6629461819        0.4581941129
 H          3.5550037319       -3.2157565399       -0.8249231769
 O          2.1913823349       -1.1920581840       -1.0628898789
 C          1.2492131896       -0.1712834020       -1.0265631238
 O          0.3497557734       -0.3018497268       -1.8789035854
 H         -0.8019872904       -0.4010849852        0.4789165103
 C         -1.2360700234        0.4007262405        1.0543256369
 C         -0.7118887861        1.6809699888        0.9707113104
 C         -1.2793668591        2.6857177847        1.7478358388
 C         -2.3434142868        2.4114735555        2.5865270931
 C         -2.8696070472        1.1341797077        2.6600296990
 C         -2.3082074952        0.1212381425        1.8913146362
 N         -2.8047865341       -1.1880266046        1.9643034569
 S         -2.9071125070       -2.1354484311        0.5878180014
 O         -3.8408129895       -3.1799707468        0.9561991940
 O         -1.5971052154       -2.5793549569        0.1860555563
 C         -3.6594973787       -1.0696829729       -0.6276333918
 C         -2.9108747492       -0.4922193148       -1.6316565173
 C         -3.5396655757        0.3780569313       -2.5106467050
 C         -4.8899931234        0.6549351779       -2.3719356168
 C         -5.6287594071        0.0600457032       -1.3598079186
 C         -5.0089012591       -0.8081139100       -0.4775846864
 H         -5.5484019196       -1.3024206071        0.3140886841
 H         -6.6806461428        0.2720267558       -1.2561212283
 H         -5.3689480806        1.3355586201       -3.0580827299
 H         -2.9611679800        0.8349486425       -3.2981737738
 H         -1.8589209914       -0.7166216809       -1.7199445866
 H         -3.6230990534       -1.2965098841        2.5455257724
 H         -3.6983484766        0.9160395663        3.3157983354
 H         -2.7696070478        3.1986639737        3.1891627288
 H         -0.8702037719        3.6833261101        1.7032617313
 C          0.4380534201        1.9992037206        0.0408806042
 H          1.0130287735        2.8156080600        0.5011527109
 C         -0.1122632031        2.4898532534       -1.2853048760
 C         -0.4561084606        3.9369932883       -1.4628478741
 C          0.7380214370        3.3593242086       -2.1603172438
 H          0.6991303848        3.2074278666       -3.2282780353
 H          1.7198637911        3.6242520857       -1.7950809985
 H         -0.2768049444        4.6055663168       -0.6350602737
 H         -1.3240687090        4.1889611123       -2.0519459751
 H         -0.7414817733        1.7599797307       -1.7770899775
 O          2.6566410559        1.7344852675        1.7084288400
