  62
        -98.93876974
 C         -1.8963999761       -0.4388360168       -0.5421927780
 C         -2.9606863104       -1.2223351745       -0.0420860835
 C         -4.3156181790       -0.6442660971       -0.1294702221
 C         -4.4620073648        0.5768373192       -0.6768685694
 C         -5.7267093593        1.3781451430       -0.8348800185
 C         -6.1903641176        2.0186677264        0.4839452154
 C         -6.1110614639        1.1066712394        1.7055964771
 H         -6.3507718590        1.7094593969        2.5855975734
 H         -5.0842261347        0.7558786140        1.8240346569
 C         -7.0588626072       -0.0902093817        1.6876768049
 H         -8.0879546487        0.2695011335        1.6184825865
 H         -6.9508109042       -0.6041869089        2.6462606023
 C         -6.8265445318       -1.1112867899        0.5723491139
 H         -7.2118965352       -0.7484901525       -0.3766611216
 H         -7.4081819362       -2.0035269807        0.8223042219
 C         -5.3792219571       -1.5672968580        0.4153221206
 H         -5.3619190345       -2.4516882044       -0.2331853735
 H         -5.0066417710       -1.9153988979        1.3853851026
 H         -7.2151387537        2.3709456301        0.3550203287
 H         -5.5563758642        2.8875924897        0.6768090264
 H         -6.5093863732        0.7585678087       -1.2624916837
 H         -5.5058148020        2.1745886554       -1.5489539163
 O         -3.4034845192        1.2978961103       -1.1464503772
 C         -2.1053676256        0.8237376924       -1.0948319261
 O         -1.2531164274        1.6018746263       -1.5640623274
 O         -2.7910674372       -2.3622956542        0.4697614309
 C         -0.4835871773       -0.9919438836       -0.4740424066
 C          0.3769540729       -0.0706033927        0.3533311070
 C         -0.0014571318        0.1817655871        1.6707564520
 C          0.7270237142        1.0460526382        2.4629331527
 C          1.8569084341        1.6702002481        1.9622533769
 C          2.2464935675        1.4229958726        0.6522126620
 C          1.5116152292        0.5507506714       -0.1418208284
 H          1.8278584974        0.3947608223       -1.1588693856
 N          3.3774726630        2.0596649568        0.1165641540
 S          4.4996726337        1.2041588975       -0.7772946695
 O          5.6536118461        2.0740614126       -0.8348939282
 O          3.9409677199        0.8005904397       -2.0415302711
 C          4.8661733324       -0.2219804638        0.2285285755
 C          4.1972885118       -1.4078368098        0.0039780166
 C          4.4443883929       -2.4834304052        0.8427600300
 C          5.3488501592       -2.3550703974        1.8853170960
 C          6.0156070389       -1.1573071137        2.0953661417
 C          5.7702911126       -0.0775509416        1.2631697597
 H          6.2745547504        0.8674760947        1.3845412441
 H          6.7220408012       -1.0622258886        2.9041780357
 H          5.5365680735       -3.1947233748        2.5357703927
 H          3.9282001591       -3.4160300722        0.6793139476
 H          3.5043258638       -1.4711816932       -0.8184205933
 H          3.8378591455        2.6941261818        0.7526243840
 H          2.4238972843        2.3536246551        2.5759666584
 H          0.4164674799        1.2363074132        3.4791755825
 H         -0.8865088129       -0.3038671605        2.0587629022
 H         -0.5743138511       -1.9504808859        0.0577764016
 C          0.0512623997       -1.2567208081       -1.8645055457
 C          1.0850106174       -2.3195550370       -2.0813730465
 C         -0.3207071334       -2.5332469680       -2.5551121509
 H         -0.5207655680       -2.5056456516       -3.6157608697
 H         -0.9433914203       -3.2281405831       -2.0106997541
 H          1.8563896230       -2.1447412794       -2.8171055347
 H          1.4105216476       -2.8796375625       -1.2175701029
 H          0.1033844761       -0.3615788382       -2.4746223735
