  62
        -98.93734712
 C         -2.3745713487        1.0501200837       -0.4133146203
 C         -3.0786128262        0.1041340686       -1.2024894238
 C         -4.4425817867       -0.2181473586       -0.7734485613
 C         -4.9601075678        0.3937640808        0.3071149700
 C         -6.3495288728        0.2050304944        0.8528350352
 C         -6.5005955089       -1.0120606083        1.7754859970
 C         -6.4701156301       -2.3691647236        1.0714909792
 H         -6.8042920244       -3.1139821273        1.7964482374
 H         -7.1889587399       -2.3681416295        0.2515088227
 C         -5.0869859279       -2.7783541142        0.5459778000
 H         -4.3186622929       -2.1680614488        1.0262739867
 H         -4.8861873415       -3.8169963880        0.8180681106
 C         -4.9267516809       -2.6689907115       -0.9704269301
 H         -5.5987385784       -3.3757205131       -1.4625288708
 H         -3.9006608060       -2.9449502387       -1.2272928503
 C         -5.1951077849       -1.2675265339       -1.5342881748
 H         -6.2639180393       -1.0545470270       -1.5200071208
 H         -4.8462019493       -1.2412549881       -2.5696451535
 H         -7.4602653053       -0.9141735683        2.2881476480
 H         -5.7139637484       -0.9764842664        2.5325152105
 H         -6.5813257885        1.1039056172        1.4281236790
 H         -7.0585664853        0.1279078939        0.0279761323
 O         -4.2587403440        1.2998083468        1.0348016180
 C         -2.9465381004        1.6364425778        0.7172285393
 O         -2.4377810781        2.4492564143        1.5084285259
 O         -2.5878589805       -0.4362620434       -2.2312172022
 C         -0.9695560108        1.3952036377       -0.8711988659
 C          0.0686788387        0.5320683209       -0.2041575751
 C          0.1206945420        0.3838602443        1.1785392895
 C          1.1154060877       -0.3763138863        1.7674809089
 C          2.0804137290       -0.9978514919        0.9926273303
 C          2.0265172253       -0.8680562229       -0.3873130327
 C          1.0239942295       -0.1126145316       -0.9763962111
 H          0.9918358883       -0.0186628924       -2.0540385653
 N          3.0478858652       -1.4689189526       -1.1728900515
 S          4.3666011804       -0.4299657011       -1.3598077450
 O          3.9260469618        0.9199390155       -1.6380990129
 O          5.2122941743       -1.0393685211       -2.3617034212
 C          5.1462749767       -0.5006926271        0.2350007455
 C          4.9431949513        0.5286389636        1.1327700306
 C          5.5246677180        0.4444529875        2.3880889399
 C          6.2928528543       -0.6611940317        2.7203388532
 C          6.4889044572       -1.6852866909        1.8054490754
 C          5.9092494540       -1.6083827780        0.5492051820
 H          6.0374834803       -2.3768695494       -0.1949249332
 H          7.0887527427       -2.5418414851        2.0678542452
 H          6.7424921794       -0.7240162653        3.6987684991
 H          5.3731632414        1.2392106626        3.1006898502
 H          4.3380578580        1.3688910151        0.8318864820
 H          2.7223992572       -1.7300881826       -2.0947422603
 H          2.8605002791       -1.5893157710        1.4434909832
 H          1.1437632373       -0.4795430954        2.8413554561
 H         -0.6230638071        0.8802621464        1.7839706531
 H         -0.9614218884        1.1417549260       -1.9440550043
 C         -0.6404830055        2.8783577255       -0.7673021522
 C          0.2689627662        3.4656421045        0.2649955262
 C          0.7194202830        3.3779206340       -1.1605269582
 H          0.7875955899        4.2862321906       -1.7403354291
 H          1.4777662721        2.6462879041       -1.4034422051
 H          0.0030417205        4.4291941346        0.6717794381
 H          0.7229808673        2.8031540589        0.9841596599
 H         -1.4852662432        3.4937460493       -1.0620396269
