  62
        -98.94417178
 C         -2.2407710880       -0.8423114700        0.4239444633
 C         -2.4627239140       -0.0238175315       -0.7102419362
 C         -3.3276241143        1.1428012653       -0.4907673857
 C         -3.8072721657        1.3999280564        0.7396077114
 C         -4.6816290081        2.5624771538        1.1246901795
 C         -6.1758283085        2.3340443164        0.8577030597
 C         -6.5860771000        2.3674374083       -0.6150871089
 H         -7.6765807471        2.4128997976       -0.6421883281
 H         -6.2108176601        3.2823171368       -1.0746092317
 C         -6.1225245334        1.1517319679       -1.4297988655
 H         -5.8440235907        0.3426742430       -0.7505820763
 H         -6.9510515548        0.7855189543       -2.0401341846
 C         -4.9527525131        1.4296332713       -2.3740339617
 H         -4.6836035201        0.4939831983       -2.8704858649
 H         -5.2630345639        2.1415030736       -3.1420359267
 C         -3.6974003963        1.9755039365       -1.6809137670
 H         -3.8506173034        3.0138714339       -1.3877907651
 H         -2.8659168231        1.9287870899       -2.3884015708
 H         -6.4662363004        1.3762849453        1.2957851492
 H         -6.7238776953        3.1193124732        1.3835416581
 H         -4.5427971749        2.7139576491        2.1974751840
 H         -4.3502274169        3.4599567646        0.6015435526
 O         -3.5229030919        0.6173278426        1.8160611185
 C         -2.7534122239       -0.5277689177        1.6813640073
 O         -2.5881721889       -1.1639557700        2.7436181791
 O         -1.9659246693       -0.2508575564       -1.8428703433
 C         -1.3956508850       -2.0957465944        0.2958057804
 C          0.0011750011       -1.7498024725       -0.1628098482
 C          0.6940679410       -2.4896188264       -1.1119871062
 C          1.9834940217       -2.1369095694       -1.4716118225
 C          2.6092210402       -1.0468569329       -0.8961935420
 C          1.9306005054       -0.3068924166        0.0634626081
 C          0.6419574198       -0.6663604327        0.4258447357
 H          0.1168183374       -0.0906475500        1.1795640208
 N          2.5575537399        0.8089414546        0.6496652255
 S          4.0561473409        0.5651930607        1.3712288019
 O          4.1862373461       -0.7833607503        1.8736534578
 O          4.1859963049        1.6286453731        2.3436276851
 C          5.2184861496        0.8392438376        0.0508819047
 C          5.1771673509        2.0497446571       -0.6128772193
 C          6.0785697485        2.2802646065       -1.6397869222
 C          7.0023909123        1.3035742893       -1.9813197677
 C          7.0338039587        0.0953225072       -1.3020221765
 C          6.1340788017       -0.1423072758       -0.2744710777
 H          6.1160794575       -1.0683791641        0.2775616144
 H          7.7530709281       -0.6622501752       -1.5685893975
 H          7.7022136358        1.4856204519       -2.7815571356
 H          6.0570079166        3.2186363860       -2.1701831809
 H          4.4458111434        2.7823118546       -0.3145465360
 H          1.9535123684        1.3278218816        1.2708603405
 H          3.6096997449       -0.7645322643       -1.1801461557
 H          2.5072412242       -2.7179413515       -2.2151054373
 H          0.2234756439       -3.3423153725       -1.5729585762
 H         -1.3198610134       -2.5168089749        1.3099248662
 C         -2.0922865669       -3.1010208700       -0.5985142407
 C         -1.9119561998       -4.5709757598       -0.3717558960
 C         -3.2148541353       -3.9143823077       -0.0303326503
 H         -4.0745041528       -4.1140065180       -0.6522797325
 H         -3.4564286990       -3.7642012538        1.0123311862
 H         -1.8802883360       -5.2257018283       -1.2295526315
 H         -1.2720294847       -4.8771015115        0.4421847590
 H         -2.1972301362       -2.7464968521       -1.6173553816
