  62
        -98.94603801
 C         -1.9325278899       -1.3114043774        0.2150999121
 C         -1.7485345928        0.0884064383        0.1206400879
 C         -2.9312747135        0.9058624162        0.4175314267
 C         -4.0890646018        0.3100950676        0.7565839799
 C         -5.3762902191        1.0090115863        1.1012297035
 C         -6.2147144288        1.4107877242       -0.1201242135
 C         -5.6662507948        2.5871123568       -0.9290376643
 H         -6.4568109872        2.9001862188       -1.6139403898
 H         -5.4653642857        3.4244529946       -0.2600712837
 C         -4.4070941934        2.2633357642       -1.7454556589
 H         -4.3025296766        1.1799088188       -1.8397318107
 H         -4.5162525592        2.6622926308       -2.7565343143
 C         -3.1123430071        2.8367115365       -1.1694321394
 H         -3.1513615739        3.9279563214       -1.1963617819
 H         -2.2830870693        2.5130990541       -1.8037709799
 C         -2.8124710277        2.3925194882        0.2678909413
 H         -1.7815488971        2.6662582741        0.5045623905
 H         -3.4783783755        2.9000464842        0.9653148296
 H         -6.3234361304        0.5401125807       -0.7710389806
 H         -7.2094859749        1.6799222293        0.2424912878
 H         -5.9589946578        0.3079461142        1.7026094941
 H         -5.1645957742        1.8919027612        1.7050171023
 O         -4.2202053641       -1.0406658518        0.8468417713
 C         -3.1544490987       -1.8819825818        0.5698613192
 O         -3.4139472063       -3.0973083199        0.6832903760
 O         -0.6559557586        0.6290684478       -0.1885014233
 C         -0.7738117798       -2.2435763882       -0.0879045963
 C          0.4155215643       -1.8889576901        0.7708926214
 C          0.2364364649       -1.7558855987        2.1461909663
 C          1.2968228464       -1.4311625769        2.9688772876
 C          2.5588629059       -1.2254100422        2.4379460741
 C          2.7513636810       -1.3659365024        1.0696380900
 C          1.6853199960       -1.7083454341        0.2467747631
 H          1.8661765973       -1.8100510988       -0.8096817333
 N          4.0291349749       -1.1984031224        0.5066724860
 S          4.2769786028       -0.1842101449       -0.8009711040
 O          3.4816219429       -0.6171977301       -1.9200331895
 O          5.7106514350       -0.1928905205       -0.9957924437
 C          3.7697062957        1.4341466132       -0.2465709707
 C          2.4260109736        1.7358149617       -0.1514576634
 C          2.0587541518        2.9857615644        0.3232235938
 C          3.0273367033        3.9056205284        0.6919665493
 C          4.3729675732        3.5847033094        0.5916144913
 C          4.7490101752        2.3370710514        0.1224634626
 H          5.7822037295        2.0454650204        0.0233311704
 H          5.1267425779        4.3005573716        0.8777278315
 H          2.7314739103        4.8762012663        1.0581770216
 H          1.0088990560        3.2201856686        0.3991192379
 H          1.6752528404        1.0157133411       -0.4352923615
 H          4.7589074037       -1.0476351959        1.1889653734
 H          3.3876456526       -0.9641844069        3.0784450919
 H          1.1401533503       -1.3297668613        4.0322424005
 H         -0.7517932713       -1.9080607025        2.5596048074
 H         -1.1107416727       -3.2526980515        0.1918938670
 C         -0.4724999117       -2.2282058751       -1.5723750697
 C          0.1181410296       -3.4344600658       -2.2359117249
 C         -1.3101008340       -3.0608151809       -2.4935889854
 H         -1.5727801140       -2.6567186879       -3.4598764150
 H         -2.0868359031       -3.6643230791       -2.0461864809
 H          0.8415657936       -3.2841392529       -3.0234515784
 H          0.3120431931       -4.2993831962       -1.6194918864
 H         -0.1621794483       -1.2520673943       -1.9293265221
