  62
        -98.94174560
 C          2.1967395192        1.2625968809        0.3041983592
 C          1.7969386791        0.3249472704       -0.6802249403
 C          2.6070024593       -0.9033933594       -0.7588226599
 C          3.6384858096       -1.0758553389        0.0865485099
 C          4.5250682098       -2.2862790487        0.1283185002
 C          3.9932746103       -3.3364815483        1.1131525408
 C          2.5092771803       -3.6553087587        0.9313452113
 H          2.2508759306       -4.4308753784        1.6558312917
 H          1.9209574502       -2.7707129787        1.1877786711
 C          2.1298027600       -4.1256226994       -0.4798823484
 H          3.0225106600       -4.4560514595       -1.0119762185
 H          1.4658379602       -4.9883514095       -0.3931497978
 C          1.3931563696       -3.0808166399       -1.3201852287
 H          0.5515551097       -2.6853761599       -0.7462309886
 H          0.9814073395       -3.5846770104       -2.1986504983
 C          2.2400365193       -1.9032048100       -1.8198983194
 H          1.6470819890       -1.3519023404       -2.5556039395
 H          3.1354885892       -2.2816265300       -2.3171213895
 H          4.1426817205       -2.9661106978        2.1301826106
 H          4.5800168704       -4.2492661583        0.9955436311
 H          4.5958117497       -2.7129162791       -0.8703698396
 H          5.5193571798       -1.9714094083        0.4499342898
 O          3.9663728496       -0.1716689384        1.0450021794
 C          3.2493619994        1.0060827916        1.1863882190
 O          3.6353977095        1.7291744521        2.1267155286
 O          0.8241749489        0.4895504099       -1.4579765001
 C          1.4721640589        2.5846199009        0.4896834188
 C         -0.0249109110        2.3900683606        0.4445642292
 C         -0.8797635214        3.1639449200       -0.3293987009
 C         -2.2474761113        2.9519941598       -0.2926478005
 C         -2.7921990809        1.9594255300        0.4996324401
 C         -1.9435932606        1.1624343505        1.2584745903
 C         -0.5773206706        1.3935788208        1.2405863798
 H          0.0788873996        0.7765558212        1.8434242799
 N         -2.4804439702        0.1217177508        2.0330543609
 S         -3.7309549702       -0.7868657698        1.3921867716
 O         -4.9869179402       -0.1316907399        1.6659655316
 O         -3.5743465697       -2.1013942095        1.9772763921
 C         -3.4700209406       -0.8535098005       -0.3722310784
 C         -2.2208293106       -1.1924824305       -0.8504409186
 C         -2.0140511810       -1.2363483210       -2.2187101386
 C         -3.0593914912       -0.9508079616       -3.0829988385
 C         -4.3123624412       -0.6228637017       -2.5887484283
 C         -4.5216268709       -0.5693159211       -1.2202434583
 H         -5.4749343608       -0.3048545411       -0.7918150882
 H         -5.1234559714       -0.4016238021       -3.2637624482
 H         -2.8925290715       -0.9811163321       -4.1481314685
 H         -1.0321818510       -1.4700920810       -2.5961287388
 H         -1.4186551904       -1.4006486100       -0.1601181787
 H         -1.7896577000       -0.4650172489        2.4763908910
 H         -3.8555789909        1.7871464698        0.5435587605
 H         -2.8989693116        3.5663387594       -0.8948826806
 H         -0.4775456717        3.9268984898       -0.9744280013
 H          1.7295581491        2.9056921714        1.5133858886
 C          1.9606095585        3.6859712106       -0.4420776918
 C          3.3128919783        3.6232164005       -1.0858408022
 C          2.0784896182        3.4770137199       -1.9211110018
 H          1.8070468278        4.2898738796       -2.5786264621
 H          1.8286887283        2.5006299897       -2.3042911913
 H          3.8838311481        4.5367111306       -1.1612224627
 H          3.9186344486        2.7469958208       -0.9045338319
 H          1.6395562684        4.6687732806       -0.1111966222
