  62
        -98.94686219
 C         -1.2408065555       -1.2195045797        0.0867995153
 C         -1.9975900628       -0.6976524813        1.1616253152
 C         -2.6731186404        0.5820912276        0.9095026135
 C         -2.5081885146        1.1883416896       -0.2807401395
 C         -3.1882707695        2.4615723568       -0.6916069762
 C         -4.5245957443        2.1750326520       -1.3912056561
 C         -5.4257554750        1.2032125313       -0.6295676238
 H         -6.3513002748        1.1018409290       -1.2004293766
 H         -4.9525123503        0.2189052002       -0.6081324742
 C         -5.7562524676        1.6362652655        0.8056085025
 H         -5.5572132764        2.7016505662        0.9272542798
 H         -6.8235073784        1.4847732344        0.9806927234
 C         -5.0126655788        0.8550032144        1.8905347728
 H         -5.4741034442        1.0873575510        2.8541926703
 H         -5.1367645660       -0.2174410504        1.7196640813
 C         -3.5131208703        1.1524507825        2.0176150756
 H         -3.1584734542        0.6788378101        2.9380346169
 H         -3.3583641463        2.2297978583        2.1057523959
 H         -5.0487476445        3.1215327422       -1.5356206877
 H         -4.3164397937        1.7479205783       -2.3747313309
 H         -2.5360784566        2.9947776619       -1.3841774062
 H         -3.3538309702        3.0806125260        0.1879483428
 O         -1.7361755913        0.6784775999       -1.2720625955
 C         -1.0804472862       -0.5334037714       -1.1181606735
 O         -0.4031119535       -0.8805960740       -2.1012463725
 O         -2.0966609694       -1.2707139440        2.2815236086
 C         -0.5152764585       -2.5412878728        0.2687158849
 C          0.9698846100       -2.3072560104        0.1486893708
 C          1.7990226690       -3.0089931839       -0.7149048404
 C          3.1465301060       -2.6994635648       -0.7997227566
 C          3.6962008248       -1.6950622328       -0.0247374594
 C          2.8762977506       -0.9963661068        0.8524731546
 C          1.5292052874       -1.3062846078        0.9348661273
 H          0.8918217696       -0.7550680620        1.6157376633
 N          3.4237082150        0.0383411005        1.6445623837
 S          3.9998798893        1.3674934996        0.8017142342
 O          5.1731790773        0.9760444301        0.0637644686
 O          4.1838409769        2.4021940141        1.7941657397
 C          2.6892797295        1.8168201207       -0.3203317503
 C          1.7178603281        2.6955388756        0.1154556983
 C          0.6774600705        3.0210056295       -0.7390504716
 C          0.6218725824        2.4564197108       -2.0039609895
 C          1.5969730142        1.5646257570       -2.4212968859
 C          2.6424541129        1.2390053829       -1.5729261928
 H          3.4210967296        0.5533580389       -1.8645526347
 H          1.5360970418        1.1112230652       -3.3969429687
 H         -0.1907300448        2.7017284369       -2.6693489415
 H         -0.0874496418        3.7084753097       -0.4139001498
 H          1.8018655842        3.1196108896        1.1036189981
 H          2.7878017785        0.3576618424        2.3625307934
 H          4.7384123206       -1.4285378579       -0.0939545094
 H          3.7773408270       -3.2475646466       -1.4829933989
 H          1.3900337703       -3.7913280073       -1.3324391383
 H         -0.7307988892       -2.8556905006        1.3006339131
 C         -1.0515120044       -3.5885079603       -0.6829839749
 C         -0.9439737310       -5.0429494862       -0.3377976983
 C         -2.2768538891       -4.3595381959       -0.2970943896
 H         -3.0020380949       -4.5933168334       -1.0620989907
 H         -2.7146118097       -4.1470827138        0.6675522869
 H         -0.7558039551       -5.7495239177       -1.1319126631
 H         -0.4778982975       -5.3009427893        0.6011222580
 H         -0.9504378161       -3.2989940296       -1.7226208843
