  62
        -98.93693221
 C         -2.3201086604       -0.9441922835        0.3718280427
 C         -2.5056684661        0.1022209259       -0.5609067070
 C         -3.5029832752        1.1308410078       -0.2051468227
 C         -4.1459308120        1.0486730779        0.9717445319
 C         -5.2155349930        1.9620775748        1.5030195576
 C         -6.6133267708        1.4193976624        1.1604564277
 C         -7.1541592808        1.8486254132       -0.2028234447
 H         -8.0794110310        1.2939751447       -0.3750060601
 H         -7.4101077805        2.9097467650       -0.1694068052
 C         -6.2110810638        1.6104496694       -1.3849838476
 H         -5.7453968685        0.6275634919       -1.2924699327
 H         -6.8127647263        1.5977718914       -2.2959461044
 C         -5.1283812834        2.6915097921       -1.5201942548
 H         -5.3840649462        3.5341011908       -0.8780353842
 H         -5.1250001050        3.0731184474       -2.5434473576
 C         -3.6958985330        2.2274286176       -1.2177170728
 H         -3.2389500803        1.8418603758       -2.1346024887
 H         -3.0973888721        3.0926186450       -0.9129025566
 H         -6.5709948164        0.3284573198        1.2135025060
 H         -7.3169174712        1.7560673717        1.9244505883
 H         -5.1032788400        1.9712907891        2.5891855870
 H         -5.0825889137        2.9725831283        1.1284955995
 O         -3.9241759930        0.0356063450        1.8527341547
 C         -3.0301196172       -0.9780449749        1.5772847401
 O         -2.9532096079       -1.8471888820        2.4681263071
 H          0.1739244442       -0.2460303133       -1.0846508118
 C          0.7104866356       -0.7372099667       -0.2863257653
 C          0.0665906282       -1.7098600908        0.4649240015
 C          0.7677077044       -2.3261829649        1.4947808833
 C          2.0781779590       -1.9726864690        1.7641865476
 C          2.7138959933       -0.9968191810        1.0176044246
 C          2.0220194230       -0.3743157981       -0.0131247883
 N          2.6437592937        0.6393333587       -0.7610698050
 S          4.1857233879        0.3724724595       -1.3629693138
 O          4.3132109814        1.2667155886       -2.4928200991
 O          4.4200416355       -1.0290347468       -1.6239699483
 C          5.2571275005        0.9364039751       -0.0568307756
 C          6.2438229807        0.1036479779        0.4335290417
 C          7.0731719981        0.5687003342        1.4423959037
 C          6.9028585162        1.8517321718        1.9392650454
 C          5.9091126461        2.6768574421        1.4337149391
 C          5.0775067213        2.2183715312        0.4246160968
 H          4.2958192978        2.8283120428        0.0031831023
 H          5.7795365470        3.6740627053        1.8226081075
 H          7.5482461646        2.2112699463        2.7250997179
 H          7.8466910172       -0.0707813338        1.8362850081
 H          6.3352868480       -0.8883765827        0.0205920009
 H          2.0429369633        1.0435852110       -1.4650910502
 H          3.7338093507       -0.7167327733        1.2246545669
 H          2.6103902780       -2.4599185561        2.5668944744
 H          0.2738275139       -3.0790378880        2.0918767769
 C         -1.3590062599       -2.1041345841        0.1579586403
 H         -1.6566560378       -2.8673799062        0.8893503985
 C         -1.4617381590       -2.7104431545       -1.2289335878
 C         -1.0036752511       -4.1206598715       -1.4399663938
 C         -2.4655224990       -3.7923959439       -1.4834661125
 H         -2.9727920624       -3.8107252634       -2.4364022824
 H         -3.0833198987       -4.1055860630       -0.6541071206
 H         -0.5023424907       -4.3662000193       -2.3637050220
 H         -0.6307679164       -4.6591307236       -0.5818368652
 H         -1.2860762082       -1.9995349803       -2.0254703596
 O         -1.8842238086        0.1999409734       -1.6548576231
