  62
        -98.94536200
 C          2.1896168291        0.8644394680        0.0470198880
 C          2.4611137942       -0.0366054239        1.1047000683
 C          2.6957884491       -1.4301834136        0.7148526203
 C          2.6570013192       -1.7744200342       -0.5854847403
 C          2.9359923660       -3.1429236459       -1.1444553162
 C          1.7165525191       -4.0733708174       -1.1451977664
 C          1.2854323091       -4.5841207810        0.2296345649
 H          0.5547506570       -5.3774368422        0.0627458316
 H          2.1416156063       -5.0318379786        0.7353017623
 C          0.6542137652       -3.5148398769        1.1323465621
 H          0.3501401854       -2.6577911109        0.5261426791
 H         -0.2523714826       -3.9141577998        1.5923049931
 C          1.5601654554       -3.0307234078        2.2654653029
 H          1.7629883399       -3.8568683016        2.9505794371
 H          1.0273848965       -2.2563128796        2.8239208380
 C          2.9000026186       -2.4430386039        1.8004550715
 H          3.3663731435       -1.9359639535        2.6487114191
 H          3.5626166237       -3.2392344150        1.4623298855
 H          0.8843452715       -3.5440911864       -1.6114509572
 H          1.9628823317       -4.9352480362       -1.7693138696
 H          3.2575535833       -2.9964838987       -2.1778503815
 H          3.7526093878       -3.6049966696       -0.5892445404
 O          2.3690692320       -0.8837083822       -1.5699241465
 C          2.0917782255        0.4450142559       -1.2801496892
 O          1.7854129363        1.1296801291       -2.2734502278
 H         -0.1427039669        1.1548204357        1.5351319498
 C         -0.4781512244        1.8882217375        0.8123939537
 C          0.4716968334        2.6249716223        0.1128924202
 C          0.0343615048        3.5648481369       -0.8094157075
 C         -1.3209212796        3.7518360538       -1.0270864388
 C         -2.2631769336        3.0205834664       -0.3278268046
 C         -1.8349490902        2.0769651809        0.5998531710
 N         -2.7789249550        1.3384135249        1.3409868842
 S         -3.9353525863        0.4123384126        0.5732421732
 O         -4.6557341686        1.2375800470       -0.3621096099
 O         -4.7126452628       -0.1837969548        1.6346926883
 C         -3.0715021598       -0.8763698620       -0.3125907898
 C         -3.2898521680       -2.1906668195        0.0512921688
 C         -2.6621802676       -3.1991125013       -0.6611189529
 C         -1.8211125424       -2.8769519677       -1.7149180193
 C         -1.5893680404       -1.5517675776       -2.0514285557
 C         -2.2246324610       -0.5384688855       -1.3502232626
 H         -2.0685237033        0.4982043751       -1.6037386091
 H         -0.9154838217       -1.2954823088       -2.8546461929
 H         -1.3477004451       -3.6640841380       -2.2806811568
 H         -2.8319222611       -4.2303440263       -0.3972198983
 H         -3.9547854351       -2.3929328445        0.8753151614
 H         -2.3681975989        0.8056156971        2.0944936976
 H         -3.3191949569        3.1508909670       -0.4980822483
 H         -1.6489348148        4.4821296721       -1.7513179877
 H          0.7518915234        4.1440298906       -1.3662382883
 C          1.9243055947        2.3219984070        0.3840015464
 H          2.0889632562        2.4030140240        1.4683745689
 C          2.8928484102        3.2421855825       -0.3250991356
 C          3.1454294700        4.6157605816        0.2185516287
 C          4.2032534268        3.5602303389        0.3278907764
 H          5.0821209292        3.6424813241       -0.2937533642
 H          4.3954185644        3.1258563176        1.2982182164
 H          3.3002254201        5.4262655401       -0.4772751138
 H          2.6190883854        4.9014234060        1.1167589732
 H          2.8924560274        3.1093203983       -1.4005275820
 O          2.5049360834        0.3090586124        2.3169905926
