  62
        -98.94521166
 C         -1.5143697002       -1.2322999997       -0.0521088208
 C         -2.8544955901       -1.3461642897        0.3997926193
 C         -3.8693924402       -0.6483871496       -0.3953210704
 C         -3.4991657503        0.0413356707       -1.4892074703
 C         -4.4154642904        0.8001435609       -2.4103362101
 C         -4.7458413603        2.2188981608       -1.9270426397
 C         -5.6998837002        2.2946056905       -0.7341766996
 H         -6.0149483602        3.3360199305       -0.6427547694
 H         -6.5907249302        1.7020737906       -0.9448766097
 C         -5.0850212501        1.8473006002        0.5994922502
 H         -3.9952319601        1.8438491302        0.5161055701
 H         -5.3416424000        2.5690829201        1.3783212504
 C         -5.5502704200        0.4739155901        1.0840464100
 H         -5.0239007600        0.2438452199        2.0138032399
 H         -6.6202331200        0.5056872901        1.3011679201
 C         -5.2857737701       -0.6685817497        0.0948532797
 H         -5.9794309302       -0.6088998595       -0.7434236502
 H         -5.4441637201       -1.6161222398        0.6154705195
 H         -3.8116728703        2.7296452207       -1.6802384397
 H         -5.2030865904        2.7506411910       -2.7647938096
 H         -3.8993634805        0.8753387111       -3.3698934601
 H         -5.3389402304        0.2386409009       -2.5546307201
 O         -2.2078863203        0.1100503608       -1.9043374404
 C         -1.1816338203       -0.4973234594       -1.1907324107
 O         -0.0564254203       -0.3222822393       -1.6938157807
 O         -3.1876109900       -2.0075534500        1.4192710592
 C         -0.4372742401       -1.8940409498        0.7943390490
 C          0.1996399700       -0.8254234200        1.6508846691
 C         -0.4031942899       -0.4725457303        2.8556412593
 C          0.1336402102        0.5259026495        3.6456552694
 C          1.2746906502        1.1987896096        3.2448869995
 C          1.8791585001        0.8614776899        2.0397560194
 C          1.3468559500       -0.1536666400        1.2562968792
 H          1.8167503999       -0.3986186398        0.3201996291
 N          3.0467880300        1.5145892599        1.6154123394
 S          3.1838345099        2.0075586903        0.0141586095
 O          4.1695826899        3.0698343103        0.0604516696
 O          1.8992974398        2.3641740104       -0.5388006503
 C          3.9075219198        0.6068546605       -0.8107186609
 C          5.1816538998        0.2362204004       -0.4259810111
 C          5.7778993898       -0.8517098895       -1.0416057414
 C          5.0929101297       -1.5461807593       -2.0277577215
 C          3.8164062796       -1.1582365892       -2.4036782813
 C          3.2124070097       -0.0687914793       -1.7932466710
 H          2.2101676297        0.2428093907       -2.0458700708
 H          3.2786947095       -1.6989686190       -3.1665956313
 H          5.5545120796       -2.3957286292       -2.5061939617
 H          6.7705783398       -1.1561881496       -0.7516300415
 H          5.6792270999        0.8086513902        0.3389631090
 H          3.3707596201        2.2374664198        2.2422597995
 H          1.6934562302        1.9830476495        3.8576617596
 H         -0.3416937097        0.7877588893        4.5791004495
 H         -1.3060601199       -0.9848218504        3.1567978593
 H         -0.9808753000       -2.5744156000        1.4646271189
 C          0.5608615198       -2.6997292097       -0.0086853513
 C          1.4780669699       -3.6416903598        0.7106405984
 C          0.3711837698       -4.1796845597       -0.1440801616
 H          0.6234923497       -4.6456841795       -1.0846352317
 H         -0.4834319302       -4.6228305198        0.3461036884
 H          2.4941208899       -3.7378428298        0.3603577883
 H          1.3720791000       -3.7170077901        1.7823356084
 H          0.9528583998       -2.1740198595       -0.8692433612
