  62
        -98.93738975
 C          2.6806749007        0.2321692500       -0.4791147601
 C          2.2117500205        0.7404930500        0.7567625599
 C          1.5932879806        2.0728795901        0.7141928698
 C          1.4991857209        2.7170052101       -0.4629364202
 C          0.7794118711        4.0154373202       -0.6909436702
 C         -0.7397143989        3.7550228804       -0.7614779905
 C         -1.5423526790        4.3897368804        0.3744124394
 H         -1.6281676789        5.4640016304        0.1948605194
 H         -2.5471901391        3.9635899105        0.3377370292
 C         -0.9731369593        4.1926847303        1.7825178995
 H         -0.1665567193        4.9073362902        1.9554360697
 H         -1.7693139294        4.4437837203        2.4866301793
 C         -0.4566170195        2.7846451502        2.1079960595
 H         -0.9316882195        2.0342680803        1.4733479994
 H         -0.7372257897        2.5452938602        3.1363182894
 C          1.0733596405        2.6292639100        2.0096417998
 H          1.5562685905        3.5879752700        2.2204063899
 H          1.3998351603        1.9167062900        2.7730065398
 H         -1.1290094887        4.1327355205       -1.7086890206
 H         -0.9042414190        2.6749606404       -0.7591989006
 H          1.0136759711        4.7140692001        0.1091404599
 H          1.1390783613        4.4275745402       -1.6342450301
 O          1.9836374111        2.2063406201       -1.6254411401
 C          2.5489813509        0.9431792101       -1.6695483701
 O          2.8902230511        0.5697340401       -2.8122031400
 H          0.6976486907       -1.1090829597       -1.3923826205
 C          0.8235485304       -1.8783736698       -0.6388559405
 C          2.0854936403       -2.1040941900       -0.1026396503
 C          2.2218355400       -3.0984679100        0.8561728397
 C          1.1150981999       -3.8045592599        1.2989775295
 C         -0.1482984700       -3.5293698398        0.8065855892
 C         -0.2854383897       -2.5641596997       -0.1788827207
 N         -1.5905409396       -2.2143707195       -0.6475411709
 S         -2.1017352296       -0.8062623295        0.1499934190
 O         -1.4795128993        0.3616478005       -0.4398283008
 O         -1.9109948098       -1.0022569296        1.5635866491
 C         -3.8452087395       -0.8117880493       -0.2249967713
 C         -4.6143908097       -1.8304970092        0.3038326685
 C         -5.9669251397       -1.8717216591        0.0071125983
 C         -6.5249075594       -0.8983064890       -0.8089965918
 C         -5.7403909392        0.1183182410       -1.3310565516
 C         -4.3853963293        0.1631601908       -1.0398401713
 H         -3.7366674691        0.9348601108       -1.4231573612
 H         -6.1759585990        0.8750117311       -1.9636587816
 H         -7.5781461094       -0.9317289488       -1.0389095520
 H         -6.5807278398       -2.6604526490        0.4112069981
 H         -4.1366101799       -2.5590425593        0.9372789386
 H         -1.5697393394       -1.9907563595       -1.6356178509
 H         -1.0225275701       -4.0369127997        1.1794449091
 H          1.2369965797       -4.5618786200        2.0583930494
 H          3.1924355599       -3.3022820102        1.2786366399
 C          3.2021639205       -1.1941231501       -0.5571390900
 H          3.4048594007       -1.3893622200       -1.6203755300
 C          4.4845601303       -1.3578888602        0.2280312302
 C          5.4700377803       -2.4193636803       -0.1565475597
 C          5.7816052605       -0.9772795504       -0.4180019096
 H          6.5338811305       -0.4920776705        0.1852627106
 H          5.7405274407       -0.6184881603       -1.4363150196
 H          6.0142383701       -2.9253341004        0.6263712304
 H          5.2259456004       -3.0451655703       -1.0015667598
 H          4.3602212502       -1.1253139903        1.2790931102
 O          2.3009429102        0.1079008699        1.8422728499
