  62
        -98.93640609
 C         -2.4306815800       -1.0515824298       -0.6581460487
 C         -3.5805638799       -0.8917789191        0.1599504713
 C         -4.3609130197        0.3329336709       -0.0415944192
 C         -3.9785513396        1.2172649103       -0.9800928498
 C         -4.6836414693        2.4988692203       -1.3323394704
 C         -4.3264998490        3.6809442807       -0.4208075411
 C         -4.9124463089        3.6145104816        0.9900876890
 H         -4.7706949287        4.5980062918        1.4424428185
 H         -5.9864762489        3.4366609118        0.9284950392
 C         -4.2646522690        2.5576004819        1.8957127795
 H         -3.3070671091        2.2487089615        1.4698156896
 H         -4.0520042589        2.9961188824        2.8732966993
 C         -5.1221969493        1.3147434923        2.1346386803
 H         -4.5509256794        0.6188855825        2.7545119806
 H         -6.0248684192        1.5919444627        2.6836466602
 C         -5.5370064895        0.5776561716        0.8546240207
 H         -6.3054474795        1.1426578715        0.3272553905
 H         -5.9475118197       -0.3950383481        1.1364324313
 H         -3.2386389090        3.7594369305       -0.3598323712
 H         -4.6989006889        4.5875190805       -0.9033165415
 H         -4.3839376994        2.7477561197       -2.3526341805
 H         -5.7620803194        2.3386186905       -1.3163212102
 O         -2.8801335297        1.0243494697       -1.7547662598
 C         -2.0676973799       -0.0937809204       -1.6054837892
 O         -1.0844727200       -0.0935355910       -2.3709732293
 O         -3.9439405700       -1.7452630286        1.0122819918
 C         -1.6278599703       -2.3250142299       -0.4562636381
 C         -0.4582685901       -2.1048151896        0.4686556317
 C         -0.2610638502       -2.9152021391        1.5799769421
 C          0.8291133199       -2.7179762988        2.4104328319
 C          1.7420398901       -1.7115098292        2.1517094513
 C          1.5520938502       -0.8945142497        1.0443316109
 C          0.4590740600       -1.0944064500        0.2137493711
 H          0.3193432701       -0.4637826804       -0.6524635792
 N          2.4696213804        0.1449031099        0.7685635902
 S          4.0740074002       -0.3525962705        0.5594141803
 O          4.1464060999       -1.3895932011       -0.4469851591
 O          4.6140684203       -0.6927707099        1.8513588705
 C          4.8232446405        1.1495118090       -0.0342329805
 C          5.1453664808        2.1336165094        0.8807408289
 C          5.7035056510        3.3160285491        0.4221882282
 C          5.9287196209        3.4931431483       -0.9350397019
 C          5.6003691306        2.4957593779       -1.8407081113
 C          5.0393815204        1.3113524582       -1.3890306806
 H          4.7734926102        0.5070572579       -2.0565822902
 H          5.7775561005        2.6352724573       -2.8951001114
 H          6.3646067811        4.4136875580       -1.2898686724
 H          5.9615029012        4.0939459794        1.1225567778
 H          4.9608166108        1.9475964100        1.9257619590
 H          2.1819802804        0.6611022495       -0.0540262100
 H          2.6029261402       -1.5575206490        2.7815136411
 H          0.9709488799       -3.3558094484        3.2698008423
 H         -0.9726008804       -3.6991822288        1.7951891526
 H         -2.3245534704       -3.0097225295        0.0528129024
 C         -1.2259461605       -2.9859447307       -1.7691109477
 C          0.1844506694       -3.0978129512       -2.2580066178
 C         -0.5306461008       -4.3152503908       -1.7587507171
 H         -0.8368920410       -5.0680061111       -2.4691142767
 H         -0.2280354908       -4.7080836304       -0.7994750469
 H          0.3529879093       -2.9906230818       -3.3189386879
 H          0.9806865695       -2.6903358711       -1.6538800681
 H         -1.9811898706       -2.8425660009       -2.5358715078
