  62
        -98.93575950
 C          2.3067849171        1.0841604528        0.1371891071
 C          3.5507769049        0.9182594822        0.7968188460
 C          4.5141073646       -0.0310764162        0.2073582798
 C          4.1563834685       -0.7059571689       -0.9002970086
 C          4.9398722846       -1.7500715468       -1.6501057449
 C          4.9416561681       -3.1123956850       -0.9374232281
 C          5.1671759904       -3.0491523553        0.5710853021
 H          4.3976921612       -2.4195488684        1.0218782315
 H          5.0323429153       -4.0585155454        0.9688099146
 C          6.5464487663       -2.5570009917        1.0032308751
 H          7.3090192601       -3.2174228569        0.5843596959
 H          6.5946011827       -2.6427557258        2.0917612912
 C          6.8923210706       -1.1153749599        0.6250417227
 H          7.1622048901       -1.0397715202       -0.4248844689
 H          7.7827932688       -0.8348503089        1.1951782124
 C          5.8165813595       -0.0897915525        0.9686797669
 H          5.5430240974       -0.1969694213        2.0244268219
 H          6.2528718593        0.9131314053        0.8854426388
 H          3.9701711306       -3.5829446861       -1.1086891927
 H          5.7064141772       -3.7409331219       -1.3968103925
 H          4.4554704932       -1.8675218121       -2.6221176942
 H          5.9535294978       -1.4017288754       -1.8250097901
 O          2.9382292740       -0.5383931914       -1.4869656797
 C          1.9854925539        0.3426879048       -1.0008907591
 O          0.9370298734        0.3614275383       -1.6736667561
 O          3.8522033112        1.5379621743        1.8520340673
 C          1.3119931362        2.0439163901        0.7686455278
 C         -0.0044714821        1.3394649782        0.9683548715
 C         -0.1646364724        0.4847162943        2.0548940759
 C         -1.3390190109       -0.2230120511        2.2281196568
 C         -2.3714656936       -0.1043107073        1.3139635740
 C         -2.2124605315        0.7298819983        0.2160578884
 C         -1.0440487331        1.4643736179        0.0612179894
 H         -0.9259049215        2.1023656540       -0.8007331547
 N         -3.2473127917        0.8440644655       -0.7272192802
 S         -4.0185988825       -0.5523697348       -1.2485672767
 O         -3.1627229391       -1.7135785036       -1.1781335897
 O         -4.5524480826       -0.2218408078       -2.5524784577
 C         -5.3750227867       -0.7265861059       -0.1048970979
 C         -6.2043542239        0.3596365451        0.0954726507
 C         -7.2698254978        0.2357801720        0.9726329362
 C         -7.4899898894       -0.9663660684        1.6283941067
 C         -6.6511089213       -2.0489656005        1.4138330504
 C         -5.5825457877       -1.9308923651        0.5384972594
 H         -4.9004932544       -2.7437513802        0.3449185220
 H         -6.8233570216       -2.9831901029        1.9238418619
 H         -8.3200422217       -1.0603355541        2.3106448279
 H         -7.9241021066        1.0756581467        1.1422672977
 H         -6.0005642480        1.2743782034       -0.4353671629
 H         -3.0048025299        1.4272157327       -1.5155529892
 H         -3.2828726504       -0.6673284162        1.4317349499
 H         -1.4515176114       -0.8787973060        3.0781506593
 H          0.6502528081        0.3736516175        2.7570270130
 H          1.7393789586        2.2586621176        1.7612734495
 C          1.1711652200        3.3839724610        0.0627732086
 C          2.3770572761        4.0744482072       -0.4991131884
 C          1.3114283952        3.5610468517       -1.4181768793
 H          0.6685862629        4.2797197571       -1.9061799022
 H          1.5207777660        2.6896477423       -2.0182555112
 H          2.4738213283        5.1410330115       -0.3640189650
 H          3.3152506691        3.5401122573       -0.4604127492
 H          0.4387480460        4.0167272104        0.5553798980
