  62
        -98.93728954
 C         -2.3658376811       -0.5536224002        0.1280101717
 C         -3.4254782662       -0.4766307561        1.0608021139
 C         -4.4359512344        0.5677240801        0.8207113202
 C         -4.2876847195        1.3874424361       -0.2346398256
 C         -5.2209081893        2.4781774921       -0.6822847197
 C         -6.2069710450        1.9499697992       -1.7379709634
 C         -7.4795777984        1.3202000623       -1.1728400755
 H         -8.1138759472        2.1055064364       -0.7562648917
 H         -8.0200526773        0.8727839318       -2.0101915568
 C         -7.2606310201        0.2490884097       -0.1010250506
 H         -8.1615794497       -0.3657613391       -0.0537605180
 H         -6.4386637854       -0.4054199653       -0.3967556092
 C         -6.9869118090        0.8357141829        1.2918693342
 H         -7.2278368929        1.8985742597        1.2838695616
 H         -7.6585794893        0.3718735669        2.0172212969
 C         -5.5585766430        0.6342709841        1.8201323394
 H         -5.5018872231       -0.3147441152        2.3625953938
 H         -5.3326430179        1.4217964121        2.5468917304
 H         -6.4994782672        2.7763883732       -2.3888345810
 H         -5.6769742556        1.2199627830       -2.3551882868
 H         -5.7453772913        2.9089772991        0.1653612646
 H         -4.5997191479        3.2496575590       -1.1419043710
 O         -3.2425536384        1.2876528734       -1.1013549527
 C         -2.2611947078        0.3232400625       -0.9511954781
 O         -1.3743749076        0.3512095865       -1.8250846401
 O         -3.5256635589       -1.2496481111        2.0521708694
 C         -1.2937468152       -1.6113136966        0.3225574804
 C          0.0374669140       -0.9371607630        0.5446058639
 C          0.1783312574       -0.0903502493        1.6417934789
 C          1.3704177292        0.5638645707        1.8819198421
 C          2.4501238023        0.3918639766        1.0323496647
 C          2.3245650301       -0.4565560098       -0.0578013323
 C          1.1255182774       -1.1198461370       -0.2924499095
 H          1.0446705540       -1.7717257222       -1.1481872807
 N          3.4115819132       -0.6295258291       -0.9289251082
 S          4.9300802275       -0.9391250277       -0.2900616866
 O          5.6439460827       -1.6381424620       -1.3361755956
 O          4.8396746030       -1.6114680428        0.9851977116
 C          5.6483594938        0.6765158639       -0.0798930165
 C          6.1074010957        1.0703348436        1.1616814103
 C          6.6720317780        2.3288802811        1.2993904158
 C          6.7686148895        3.1659835522        0.1984713944
 C          6.3056174216        2.7542463786       -1.0424990954
 C          5.7403500665        1.4974058034       -1.1866947878
 H          5.3725431151        1.1393238087       -2.1338377884
 H          6.3828233125        3.4079196433       -1.8964509874
 H          7.2077685845        4.1450490770        0.3077695178
 H          7.0331413906        2.6507501551        2.2630029433
 H          6.0087035907        0.3870830693        1.9903240189
 H          3.2148543510       -1.2271035598       -1.7182123081
 H          3.3814192825        0.9042892343        1.2094083033
 H          1.4616220603        1.2180906836        2.7357473725
 H         -0.6665370755        0.0479679470        2.3027883359
 H         -1.5670033038       -2.1361355950        1.2494642467
 C         -1.3031059377       -2.6051244261       -0.8190356926
 C         -0.7227019123       -3.9731554441       -0.6232779412
 C         -2.2064361189       -3.7974887696       -0.7383583536
 H         -2.6976232718       -4.1336850811       -1.6391864007
 H         -2.8063420240       -3.9078239144        0.1530639357
 H         -0.1956069426       -4.4347403747       -1.4448858940
 H         -0.3122091104       -4.2062682145        0.3477058399
 H         -1.1881459826       -2.1333809475       -1.7885580635
