  62
        -98.94699830
 C          1.0649327804        1.7004736186        0.4128254005
 C          1.8113203906        1.2413908181       -0.7026942091
 C          2.8477939395        0.2357031571       -0.4121577987
 C          3.0409955384       -0.1746345933        0.8533886813
 C          4.0496209871       -1.1977786244        1.2873512018
 C          3.4547131757       -2.6115792538        1.3091411912
 C          2.7294243361       -3.0029618429        0.0214807907
 H          2.4135801550       -4.0435729526        0.1281721003
 H          1.8183259967       -2.4104846920       -0.0885245198
 C          3.5678087470       -2.8537317535       -1.2552944388
 H          4.6294637469       -2.8154468446       -1.0056290782
 H          3.4103766965       -3.7368681332       -1.8780936291
 C          3.1952230187       -1.6392968730       -2.1087797588
 H          2.1099193888       -1.6151461319       -2.2406802795
 H          3.6438140992       -1.7667145132       -3.0981994986
 C          3.6545718897       -0.2773057835       -1.5709001183
 H          4.7156665495       -0.3221464946       -1.3132195377
 H          3.5264694309        0.4566660468       -2.3722533683
 H          2.7442287752       -2.6788419933        2.1363399207
 H          4.2638880649       -3.3198732946        1.4982417315
 H          4.3830341068       -0.9400442549        2.2944806520
 H          4.9035105375       -1.1632656151        0.6133940523
 O          2.3109871082        0.2912508572        1.8988959810
 C          1.3058839792        1.2254861182        1.7032822306
 O          0.7103183789        1.5555834886        2.7490788503
 O          1.6405016317        1.6454945685       -1.8825649692
 C         -0.0437846485        2.7268393797        0.2859963400
 C         -1.3355814787        2.1546813611       -0.2569195009
 C         -2.5187474581        2.8786286822       -0.1314528114
 C         -3.7113881283        2.3698057234       -0.6091206122
 C         -3.7591211992        1.1180657236       -1.1987324725
 C         -2.5856398898        0.3875589125       -1.3295215619
 C         -1.3854410296        0.9156154612       -0.8723846211
 H         -0.4852729000        0.3419667004       -1.0170800607
 N         -2.5877020007       -0.8910209374       -1.9103859521
 S         -1.6772564423       -2.1045478084       -1.2038989318
 O         -0.2775707219       -1.9141044297       -1.4774544509
 O         -2.2623866432       -3.3278751378       -1.7092578524
 C         -2.0108545432       -1.9440782884        0.5395852080
 C         -1.0911778531       -1.3324656394        1.3652422387
 C         -1.4103462737       -1.1291876194        2.6983331585
 C         -2.6389215444       -1.5503671183        3.1823630677
 C         -3.5485825245       -2.1795515772        2.3449577671
 C         -3.2380694739       -2.3714375473        1.0090111872
 H         -3.9159260639       -2.8578856165        0.3264237467
 H         -4.4997140950       -2.5118483664        2.7286090764
 H         -2.8851812448       -1.3866217282        4.2195480976
 H         -0.7024502636       -0.6206748302        3.3348563690
 H         -0.1411972525       -1.0169968303        0.9628438093
 H         -3.5010501609       -1.2305810265       -2.1750494327
 H         -4.6921076294        0.7117752646       -1.5578114931
 H         -4.6188349778        2.9449485643       -0.5081054727
 H         -2.4976463475        3.8456793921        0.3457432388
 H         -0.2471574488        3.0698525998        1.3111929500
 C          0.3837194632        3.9275661795       -0.5415973495
 C         -0.0403300557        5.3101697698       -0.1517369295
 C          1.3858074537        4.8862851584        0.0258718912
 H          2.1396841945        5.2919843378       -0.6316687482
 H          1.7397230730        4.6963413179        1.0292733714
 H         -0.2736186846        6.0151205502       -0.9348768795
 H         -0.6369152762        5.4263419902        0.7404246301
 H          0.4635201736        3.7017705696       -1.5977733495
