  62
        -98.93955755
 C         -1.4479332633       -0.9943405812       -0.5512252566
 C         -2.5770709618       -1.0056529440        0.3056376580
 C         -3.2593057002        0.2764420490        0.5454968263
 C         -2.7853324336        1.3908716227       -0.0416734093
 C         -3.2191950215        2.8385542146        0.0598540990
 C         -4.5564151127        3.2101723509        0.6945956212
 C         -5.7841541764        2.7756047239       -0.1055431192
 H         -5.8351134768        3.3784720459       -1.0156406206
 H         -6.6741540821        2.9935412486        0.4885912540
 C         -5.8115358353        1.3077065817       -0.5235888629
 H         -4.9712523273        1.1006124092       -1.1891927273
 H         -6.7269903191        1.1406455496       -1.0974915118
 C         -5.7936234034        0.3007442816        0.6245452962
 H         -5.9753171695       -0.6890667399        0.1973767169
 H         -6.6073368354        0.5196618470        1.3186685063
 C         -4.4790753488        0.2253352656        1.4203257553
 H         -4.4476359253       -0.7416316051        1.9311536392
 H         -4.4339109803        0.9974731999        2.1852055011
 H         -4.5757185136        4.3013010038        0.7634825070
 H         -4.6069796665        2.8309354115        1.7110815053
 H         -3.1844534192        3.2341990074       -0.9604147091
 H         -2.4179895145        3.3426037969        0.6127013046
 O         -1.6998183662        1.3555312462       -0.8636001316
 C         -0.9982390639        0.1911597649       -1.1280187617
 O         -0.0294940285        0.3677986204       -1.8932905220
 O         -3.0015393563       -2.0577207232        0.8573961638
 C         -0.7288906819       -2.3198579776       -0.7385267980
 C          0.3544024839       -2.4622275537        0.3058231841
 C          0.3779305723       -3.5538819893        1.1646765959
 C          1.3453916768       -3.6509094860        2.1491895612
 C          2.2838617084       -2.6490240034        2.3110139959
 C          2.2696628608       -1.5511112277        1.4555601299
 C          1.3288143796       -1.4825107804        0.4398912255
 H          1.3253058722       -0.6340696629       -0.2229405406
 N          3.2080580300       -0.5217959433        1.6099416084
 S          2.8236091690        1.0999497086        1.3915798157
 O          3.5261839451        1.7816273837        2.4619194844
 O          1.3976669025        1.3108694527        1.3341940925
 C          3.6303229833        1.5084144640       -0.1428525877
 C          2.9263738307        1.5572144299       -1.3280437832
 C          3.6094082990        1.8608467175       -2.4970357359
 C          4.9721517004        2.1087959933       -2.4630854839
 C          5.6648475599        2.0583769150       -1.2623153996
 C          4.9901197102        1.7550564426       -0.0921087605
 H          5.4847312912        1.7200652480        0.8643984493
 H          6.7246152230        2.2545022152       -1.2361200853
 H          5.4950978800        2.3447462995       -3.3765357867
 H          3.0633478685        1.8979401866       -3.4263022914
 H          1.8651886270        1.3596216273       -1.3396299645
 H          3.8199340030       -0.6359378046        2.4050058603
 H          3.0205687137       -2.7079823282        3.0980110562
 H          1.3556790317       -4.5036491443        2.8110271989
 H         -0.3804648659       -4.3171226814        1.0718940966
 H         -1.4851115874       -3.0914755474       -0.5376390646
 C         -0.1712164467       -2.5468391890       -2.1286933832
 C          0.0567359494       -3.9516466990       -2.5977212014
 C         -1.0532971363       -3.1351686668       -3.1869852893
 H         -0.9521630946       -2.7735941378       -4.1990306692
 H         -2.0688846962       -3.3799043344       -2.9113104632
 H          0.9241594076       -4.1553709166       -3.2061931628
 H         -0.2075741648       -4.7537476878       -1.9254693990
 H          0.5381556395       -1.7907496856       -2.4373395899
