  62
        -98.94063793
 C          1.5894556649        0.5302856304        0.7840964827
 C          2.9456883993        0.6546727866        1.1843756108
 C          3.9377592451        0.7318730089        0.1070303398
 C          3.5351249307        0.6681425474       -1.1746037187
 C          4.4217795607        0.7528238045       -2.3873107330
 C          5.0686186233       -0.5818464531       -2.7820277390
 C          6.1878257686       -1.0615964690       -1.8568882861
 H          6.9176106960       -0.2618818548       -1.7264711949
 H          6.6935536741       -1.8841594378       -2.3665465115
 C          5.7079257202       -1.5527987561       -0.4838908207
 H          6.1992343405       -2.4983892196       -0.2434432658
 H          4.6343302005       -1.7525442023       -0.5235813716
 C          5.9911281145       -0.5892279542        0.6687040303
 H          7.0701675897       -0.4862286359        0.8031065797
 H          5.5773166951       -1.0193166103        1.5843200833
 C          5.3857916849        0.8087515509        0.4867616256
 H          5.9463475384        1.3667014149       -0.2629953106
 H          5.4526954560        1.3373903712        1.4408033632
 H          5.4835015773       -0.4585158702       -3.7851647651
 H          4.2884900489       -1.3449723236       -2.8374866402
 H          5.1985001124        1.5001373390       -2.2220623179
 H          3.7884660643        1.0848645833       -3.2128903349
 O          2.2288515323        0.5335202892       -1.5209288948
 C          1.2251595798        0.4381978003       -0.5606475613
 O          0.0885493226        0.2914419789       -1.0437788498
 O          3.3106918548        0.7005698146        2.3890967899
 C          0.5496352800        0.4174373293        1.8854055689
 C         -0.2893099809       -0.8187784126        1.6866467696
 C          0.2708417691       -2.0562637861        1.9933237372
 C         -0.4579479202       -3.2201282278        1.8467200628
 C         -1.7604246677       -3.1701720287        1.3827376761
 C         -2.3250158010       -1.9436337532        1.0573618094
 C         -1.5929085016       -0.7739975564        1.2151089786
 H         -2.0391953505        0.1707876414        0.9518758240
 N         -3.6554051032       -1.8665854472        0.5956975595
 S         -3.9083123384       -1.2900708241       -0.9672883095
 O         -5.2147466613       -1.8100065707       -1.3231079292
 O         -2.8271469722       -1.6629030635       -1.8485973865
 C         -4.0391917921        0.4744771579       -0.7965519128
 C         -3.0668501337        1.2972559407       -1.3270764418
 C         -3.2321084619        2.6705159447       -1.2228045219
 C         -4.3498264702        3.1897972764       -0.5880260600
 C         -5.3108375334        2.3460532644       -0.0505802421
 C         -5.1592956055        0.9737524155       -0.1598486083
 H         -5.8891645527        0.2809643900        0.2246726650
 H         -6.1761024588        2.7540246148        0.4466060699
 H         -4.4700789792        4.2592110725       -0.5110356994
 H         -2.4816730541        3.3265628238       -1.6349694259
 H         -2.1945733508        0.8552668947       -1.7826215829
 H         -4.1604501128       -2.7369502555        0.6989918327
 H         -2.3369639556       -4.0760920728        1.2654664438
 H         -0.0116636310       -4.1718663144        2.0933575856
 H          1.2907764482       -2.0923672215        2.3517654348
 H          1.1491692838        0.2653316610        2.7985216642
 C         -0.2772544773        1.6706170069        2.1259905808
 C          0.3714829049        3.0215187780        2.0785532926
 C         -0.6470920970        2.6415216779        1.0481667307
 H         -1.6227932729        3.1022120112        1.0966442753
 H         -0.3141693794        2.4332520925        0.0443642981
 H          0.1028158791        3.7507774512        2.8276250831
 H          1.4090938539        3.0615037031        1.7798679351
 H         -1.0126375309        1.5163947371        2.9099015060
