  62
        -98.93537047
 C          1.9518933620        0.5768313287        0.1724014662
 C          2.6666962814       -0.6466104271        0.2556663159
 C          4.0508273467       -0.6365551071       -0.2334480069
 C          4.5639083925        0.4973477337       -0.7428509244
 C          5.9341508478        0.6821713254       -1.3394683942
 C          7.1259704694        0.5150079132       -0.3774953257
 C          7.7270548917       -0.8958057917       -0.3545655017
 H          8.8146252431       -0.8135693510       -0.3028937324
 H          7.4951636969       -1.3917720127       -1.2978798387
 C          7.2912898335       -1.7879793356        0.8116649963
 H          7.8359802613       -1.4912178860        1.7109493138
 H          7.5823179928       -2.8138101973        0.5752705702
 C          5.8007267168       -1.7626812985        1.1506788506
 H          5.5586224313       -0.8346031417        1.6741639448
 H          5.5965882163       -2.5738434898        1.8526192386
 C          4.8614904968       -1.8884923990       -0.0646955262
 H          4.1501054427       -2.7010976006        0.0965584994
 H          5.4286877142       -2.1032404925       -0.9693000674
 H          6.8293548472        0.8196947973        0.6257671354
 H          7.8996270666        1.2087355107       -0.7103695157
 H          5.9405560418        1.6975144332       -1.7410958056
 H          6.0462916389       -0.0090869016       -2.1778792533
 O          3.8443849660        1.6475837273       -0.8151412788
 C          2.5368537835        1.7275013427       -0.3573910231
 O          2.0372941708        2.8613346590       -0.4918692388
 O          2.1659738480       -1.7061643810        0.7212625550
 C          0.5292934898        0.5669536874        0.7033215631
 C         -0.4941269857        0.4143438876       -0.3968701203
 C         -0.5704056595        1.3152515535       -1.4546494387
 C         -1.5266209804        1.1579494453       -2.4407963607
 C         -2.4403508261        0.1198317307       -2.3789739209
 C         -2.3791131384       -0.7792504277       -1.3221269948
 C         -1.4014329274       -0.6340047319       -0.3467157112
 H         -1.3614824594       -1.3494990664        0.4606653527
 N         -3.3059315264       -1.8354293040       -1.2124898456
 S         -4.2609211384       -1.8867454660        0.1633605916
 O         -3.4375235962       -2.1025399122        1.3242724537
 O         -5.2656833406       -2.8886473546       -0.1121414562
 C         -5.0167522091       -0.2714441947        0.2283815619
 C         -6.2726076031       -0.1011737761       -0.3211353910
 C         -6.8307915555        1.1667290240       -0.3401921072
 C         -6.1210702561        2.2402303543        0.1764162869
 C         -4.8599453113        2.0533192271        0.7211626266
 C         -4.2987375184        0.7863826251        0.7505847965
 H         -3.3215689406        0.6089854072        1.1688961038
 H         -4.3055040580        2.8875856688        1.1199362314
 H         -6.5521323828        3.2286762877        0.1554191567
 H         -7.8127132802        1.3143382253       -0.7601196916
 H         -6.7884463195       -0.9645405608       -0.7094305013
 H         -3.8898318493       -1.9475508071       -2.0299229943
 H         -3.1923591730        0.0035487452       -3.1448783221
 H         -1.5686873384        1.8587841270       -3.2605885592
 H          0.1311262925        2.1338310385       -1.4980263423
 H          0.4682243431       -0.3309189546        1.3340310042
 C          0.1913498772        1.7724884206        1.5599806848
 C         -0.8712694707        1.6408514893        2.6080337128
 C          0.5674488770        1.7684872398        3.0095589765
 H          0.9013611348        2.6924349366        3.4569985775
 H          1.0688433011        0.8916303892        3.3934147145
 H         -1.5286532551        2.4780093884        2.7859624334
 H         -1.3421311842        0.6754820848        2.7286394029
 H          0.2674156508        2.7122360402        1.0288453867
