  62
        -98.94300049
 C          0.9280359626        1.7506986036        0.0812026556
 C          1.7801677255        1.1212252483        1.0204097208
 C          3.0065480769        0.5279838468        0.4742734790
 C          3.2280721630        0.5587941816       -0.8528115177
 C          4.4601180583        0.0592679104       -1.5588325885
 C          4.4835767270       -1.4529705092       -1.8171849621
 C          4.7350986686       -2.3195112700       -0.5830869636
 H          4.9622121585       -3.3259002243       -0.9398783889
 H          5.6177972765       -1.9547409277       -0.0570171699
 C          3.5467180866       -2.3967407664        0.3845485167
 H          2.6382963166       -2.0733062418       -0.1282658277
 H          3.3970389597       -3.4346460491        0.6871583510
 C          3.7074590109       -1.5771090172        1.6640741125
 H          4.5218464413       -1.9881796746        2.2650848206
 H          2.7849192757       -1.6594570465        2.2441103494
 C          3.9830055030       -0.0874298811        1.4317773242
 H          3.8773300347        0.4326608533        2.3873995757
 H          5.0020123109        0.0534004655        1.0705389574
 H          5.2817356569       -1.6445933917       -2.5380688049
 H          3.5387110584       -1.7435787744       -2.2813878998
 H          5.3447150408        0.3438232398       -0.9872601034
 H          4.4906724622        0.5736853173       -2.5217776783
 O          2.3442287990        1.1061058788       -1.7296201957
 C          1.1954256865        1.7474766745       -1.2874447554
 O          0.5156813093        2.2623191646       -2.1948166645
 O          1.5416615454        1.0810550901        2.2575663650
 C         -0.2679417646        2.5342097048        0.5905063270
 C         -1.5286002256        2.1986512022       -0.1647792091
 C         -2.3124002621        3.1616949929       -0.7875486395
 C         -3.4706187462        2.8029923381       -1.4530136728
 C         -3.8861385836        1.4860777401       -1.4842113851
 C         -3.1171874249        0.5140130062       -0.8536237102
 C         -1.9419801684        0.8716398529       -0.2124728188
 H         -1.3439253683        0.1101190970        0.2697231984
 N         -3.5252064071       -0.8287085098       -0.8697679700
 S         -3.3626397842       -1.7820832035        0.4943198043
 O         -4.4356182203       -2.7497330322        0.3902522754
 O         -3.3348882091       -0.9927308353        1.7024194715
 C         -1.8243667287       -2.6417719550        0.2598682286
 C         -0.9073373263       -2.7091132633        1.2887378072
 C          0.2441788876       -3.4596498529        1.1109395736
 C          0.4585856733       -4.1215546836       -0.0878688211
 C         -0.4673903978       -4.0346600879       -1.1162693944
 C         -1.6236154216       -3.2923212230       -0.9417487925
 H         -2.3727634943       -3.2113403116       -1.7115806569
 H         -0.2934452694       -4.5470753630       -2.0487812433
 H          1.3529961304       -4.7089708673       -0.2217219158
 H          0.9668955418       -3.5237990571        1.9086096006
 H         -1.1086273063       -2.1738485512        2.2037038150
 H         -4.4104939588       -0.9900307513       -1.3281740672
 H         -4.7966941660        1.2059548631       -1.9921511611
 H         -4.0628326756        3.5609445925       -1.9430053335
 H         -2.0141021243        4.1963134402       -0.7608684895
 H         -0.4058256465        2.2177741078        1.6354974898
 C          0.0718892297        4.0122855563        0.5766113551
 C         -0.5943490749        4.9522806539        1.5353557835
 C          0.8473921231        4.5891208547        1.7212052482
 H          1.5996840732        5.3344627771        1.5101119985
 H          1.1107854485        3.9197549947        2.5268470796
 H         -0.8309581683        5.9507419533        1.1998181494
 H         -1.3156070170        4.5350291931        2.2217452515
 H          0.3097262471        4.3756518977       -0.4177638037
