  62
        -98.94085271
 C         -2.6587023636       -1.1665922443       -0.3879193501
 C         -2.1681438270       -0.0001510253       -1.0236337478
 C         -3.0635511980        1.1664427441       -1.0001068778
 C         -4.2663663578        1.0670812795       -0.4061991390
 C         -5.2494734697        2.1915323106       -0.2613929442
 C         -5.0363696361        2.9468324259        1.0579198247
 C         -3.5825887386        3.3443113147        1.3155076623
 H         -3.5586247438        3.8985925245        2.2563866920
 H         -2.9834424980        2.4420296628        1.4620929612
 C         -2.9503645777        4.1954792745        0.2054445066
 H         -2.4012489431        5.0190049305        0.6668083161
 H         -3.7323329108        4.6340448869       -0.4157096285
 C         -1.9582692587        3.4439889533       -0.6844313346
 H         -1.2232538155        2.9273962395       -0.0604086213
 H         -1.4158135415        4.1804959313       -1.2835354536
 C         -2.5718553752        2.4265589405       -1.6548981742
 H         -3.3710260825        2.9009921225       -2.2279196958
 H         -1.7862219170        2.1161708879       -2.3498324377
 H         -5.6629450651        3.8404847415        1.0496051678
 H         -5.3660858488        2.3076788650        1.8802113666
 H         -5.1425979792        2.8722958500       -1.1034940622
 H         -6.2564058869        1.7710643853       -0.2699889532
 O         -4.7081251036       -0.0737138886        0.1819704186
 C         -3.9127101980       -1.2050848199        0.2262793350
 O         -4.4275995659       -2.1706831943        0.8248653955
 O         -1.0467569118        0.0746163049       -1.5918172183
 C         -1.8125101948       -2.4273212276       -0.2945279814
 C         -0.6411859953       -2.1224611203        0.6073028772
 C         -0.8369218112       -2.1146089811        1.9858688346
 C          0.1879935285       -1.7586872139        2.8419240999
 C          1.4267991063       -1.3945451706        2.3424492854
 C          1.6279133060       -1.3900328560        0.9693617284
 C          0.6018559724       -1.7656838791        0.1109048970
 H          0.7667526211       -1.7425054660       -0.9544127603
 N          2.8822693499       -1.0176989491        0.4457961144
 S          3.5870490788        0.3756731500        1.0942092152
 O          4.2322636049        0.0212798494        2.3346030707
 O          2.6153085381        1.4436074014        1.1744588436
 C          4.8177221348        0.7345071972       -0.1430890734
 C          6.0646342858        0.1485156691       -0.0374711810
 C          7.0088238944        0.4028532672       -1.0194722606
 C          6.6915424952        1.2326231022       -2.0845328635
 C          5.4354996551        1.8135721150       -2.1766917929
 C          4.4859503940        1.5625531929       -1.1987023450
 H          3.4994348613        1.9982676258       -1.2270087711
 H          5.1916271710        2.4593714252       -3.0049345873
 H          7.4277877000        1.4301100098       -2.8475728557
 H          7.9868700689       -0.0453172588       -0.9512401696
 H          6.2668133075       -0.4824013289        0.8121359647
 H          2.8484576506       -0.9477244039       -0.5630839997
 H          2.2294846700       -1.0948334900        2.9968079446
 H          0.0217268664       -1.7568543106        3.9090102767
 H         -1.8118862980       -2.3751617605        2.3753515993
 H         -2.4413773527       -3.1757771876        0.2053607052
 C         -1.4241665719       -2.9515076725       -1.6606745777
 C         -0.8987859046       -4.3490930347       -1.7862874675
 C         -2.2653578962       -4.0127734108       -2.3008357287
 H         -2.4197903124       -3.9718138959       -3.3686488020
 H         -3.1232186617       -4.3700014277       -1.7499622068
 H         -0.1140773633       -4.5442730465       -2.5010088920
 H         -0.8274989904       -4.9355619827       -0.8827610873
 H         -1.0114924627       -2.1912887534       -2.3117491463
