  62
        -98.94068671
 C          1.5782591721        1.1077321057        0.8644346557
 C          2.7969456323        1.2697216931        0.1595478400
 C          3.7901027483        0.1980046962        0.3476910079
 C          3.4978738251       -0.8531198151        1.1333609437
 C          4.3910739170       -2.0393160074        1.3513290887
 C          4.1063651861       -3.1480136742        0.3281186530
 C          4.0526425522       -2.6559222536       -1.1181978299
 H          3.8742580400       -3.5273967328       -1.7516887365
 H          3.1947661994       -1.9902258696       -1.2377656212
 C          5.3228548224       -1.9340240199       -1.5892165277
 H          5.5874120253       -2.3022601655       -2.5827005146
 H          6.1535709022       -2.1731645800       -0.9241795202
 C          5.1849554357       -0.4145809305       -1.7001695770
 H          4.2997196436       -0.1690063385       -2.2919567195
 H          6.0554887038       -0.0326429603       -2.2401901346
 C          5.1018975346        0.3464837781       -0.3709862272
 H          5.9306531084        0.0505524679        0.2754327953
 H          5.2029430615        1.4128599601       -0.5932980594
 H          4.8788957841       -3.9129857181        0.4256462088
 H          3.1443788045       -3.6048231020        0.5709452392
 H          5.4297737097       -1.7225454903        1.2792922004
 H          4.2087878302       -2.4270534870        2.3551091039
 O          2.3152827243       -0.9770120922        1.7895073558
 C          1.3359674110       -0.0062969052        1.6721618335
 O          0.3031858546       -0.2415654247        2.3318611337
 H         -2.2244361043        1.5882986200        0.8858077629
 C         -1.8261110421        1.4931831972       -0.1130169673
 C         -0.4816271091        1.7321849867       -0.3527010164
 C          0.0051099539        1.5910829830       -1.6496380409
 C         -0.8426616807        1.2255911477       -2.6783132590
 C         -2.1818283665        0.9733878837       -2.4326248257
 C         -2.6755648237        1.1033119066       -1.1405636220
 N         -4.0306249038        0.8553110463       -0.8591467289
 S         -4.4300414728       -0.1552718889        0.4171634795
 O         -5.8272713767       -0.4640182312        0.2049165892
 O         -4.1032314149        0.4796102234        1.6668951085
 C         -3.4440529600       -1.6168847857        0.1500713429
 C         -2.1780169247       -1.7119945078        0.6905577345
 C         -1.4105162995       -2.8283928697        0.3945752268
 C         -1.9145319485       -3.8235691646       -0.4272246677
 C         -3.1920655300       -3.7149910626       -0.9569848436
 C         -3.9623666579       -2.6003231514       -0.6717684617
 H         -4.9626553351       -2.4792840040       -1.0553502647
 H         -3.5856783746       -4.4928959261       -1.5911971249
 H         -1.3099033118       -4.6881547358       -0.6519844679
 H         -0.4198059291       -2.8998252983        0.8163727470
 H         -1.7931054610       -0.9370484040        1.3348362500
 H         -4.5805399486        0.6174025946       -1.6727717189
 H         -2.8409549469        0.6792715305       -3.2351976181
 H         -0.4560361535        1.1261366375       -3.6812813022
 H          1.0519428245        1.7764205030       -1.8376633275
 C          0.4323854989        2.1043117933        0.7863669996
 H         -0.1360725299        1.9656178731        1.7203580358
 C          0.8904387681        3.5557782486        0.7517652541
 C          0.6651796457        4.4720955038       -0.4097071846
 C         -0.1309068470        4.6510029606        0.8455403720
 H          0.0749377193        5.5007187758        1.4788204367
 H         -1.1707410429        4.3583018583        0.8248477982
 H          0.1599177786        4.0849848159       -1.2801677162
 H          1.4425286243        5.1849452607       -0.6387217510
 H          1.8108613872        3.7046498456        1.3063536663
 O          3.0621284975        2.2435533067       -0.5894164530
