  62
        -98.94347303
 C         -1.8666794187       -0.8382428235        0.7307536304
 C         -2.1813674320       -0.4385062222       -0.5905697648
 C         -3.6099558567       -0.4540365698       -0.9373741663
 C         -4.5074167905       -0.8620608375       -0.0215555569
 C         -5.9947227412       -0.8691249197       -0.2223825345
 C         -6.6217693349        0.4524043542        0.2437763641
 C         -5.9171779657        1.6956862566       -0.2993797455
 H         -4.9094677006        1.7468491958        0.1195374689
 H         -6.4629116451        2.5663650185        0.0708568499
 C         -5.8313330874        1.7587355498       -1.8307503868
 H         -6.0978786816        2.7670430224       -2.1546180604
 H         -6.5582048623        1.0748988785       -2.2706041476
 C         -4.4436700304        1.4596709779       -2.4013923982
 H         -3.6976756422        2.0784956276       -1.8960248575
 H         -4.4426894159        1.7431434151       -3.4572426232
 C         -3.9895800904       -0.0032474077       -2.3197303337
 H         -3.0842614310       -0.1036234572       -2.9253154084
 H         -4.7598981388       -0.6522889818       -2.7408594020
 H         -6.5843931526        0.4872463547        1.3351633747
 H         -7.6699691306        0.4640802299       -0.0604288324
 H         -6.2139353884       -1.0362508868       -1.2750107279
 H         -6.4174674762       -1.6876751350        0.3625286895
 O         -4.1617173411       -1.2707903667        1.2266068027
 C         -2.8392338589       -1.2527969509        1.6394337238
 O         -2.6614277118       -1.6209222426        2.8188282675
 H          2.0824520724       -0.1048605488        0.3000384836
 C          1.4678214404        0.7414394471        0.5575903175
 C          0.1759278750        0.5514074360        1.0227480481
 C         -0.5795195255        1.6706066756        1.3637032457
 C         -0.0650780176        2.9434786437        1.2165343862
 C          1.2237154109        3.1285743141        0.7477106769
 C          1.9939149004        2.0195591715        0.4231863053
 N          3.3006996547        2.1722647672       -0.0618287738
 S          4.5082895628        1.1317129539        0.4427777199
 O          4.2988078966        0.6896952411        1.8016791455
 O          5.7381823157        1.8547048708        0.1950504288
 C          4.4279771332       -0.2515954087       -0.6750007074
 C          4.1229525258       -0.0301905421       -2.0032928424
 C          4.1107548109       -1.1076018389       -2.8746322182
 C          4.4111041684       -2.3789330968       -2.4093990275
 C          4.7211780662       -2.5836442706       -1.0739467267
 C          4.7302255375       -1.5108703660       -0.1959254937
 H          4.9537884860       -1.6268771243        0.8526898406
 H          4.9544104669       -3.5729831809       -0.7130945167
 H          4.4017382210       -3.2151464087       -3.0906887370
 H          3.8660029935       -0.9526852793       -3.9131334482
 H          3.8905546978        0.9689920238       -2.3317578871
 H          3.6268640356        3.1259368529       -0.1184272179
 H          1.6285800393        4.1227229379        0.6335471999
 H         -0.6688527965        3.8005021051        1.4754930192
 H         -1.5837329276        1.5278712753        1.7402217548
 C         -0.4223142525       -0.8240031358        1.1949089746
 H         -0.4435173605       -1.0509385889        2.2715699666
 C          0.3573155690       -1.9117784802        0.4843954256
 C          1.5092815835       -2.5889173750        1.1620300629
 C          0.2197528219       -3.3252680565        0.9613768186
 H          0.1860064935       -4.1166204666        0.2279736593
 H         -0.4136832175       -3.4974229643        1.8196909833
 H          1.7636307082       -2.2660182062        2.1607014217
 H          2.3601708688       -2.8752654784        0.5624456256
 H          0.4175299649       -1.7465612024       -0.5853669318
 O         -1.3177303639       -0.0838220622       -1.4337727768
