  62
        -98.93805809
 C         -1.4038755095       -1.4955454492       -0.1284505882
 C         -2.5773210621       -1.3015594850        0.6393606506
 C         -3.4413185233       -0.1673118687        0.2637103922
 C         -3.0743017805        0.6171471419       -0.7653486840
 C         -3.7699528700        1.8348581444       -1.3190166322
 C         -5.2916246456        1.7289555232       -1.5053843001
 C         -6.0855896135        2.5897475898       -0.5213614060
 H         -5.5687096037        3.5435981035       -0.3975036576
 H         -7.0644360191        2.8045461583       -0.9560178664
 C         -6.3185169720        1.9593103574        0.8506981034
 H         -6.7650076689        2.7220820060        1.4930016154
 H         -7.0453238912        1.1493523377        0.7570607775
 C         -5.0686330721        1.4082354142        1.5403061885
 H         -4.2249128910        2.0825005842        1.3996312675
 H         -5.2702019930        1.3703918992        2.6129560741
 C         -4.6901491721       -0.0099724753        1.0876502845
 H         -5.5264097193       -0.4642751362        0.5480130339
 H         -4.5221820680       -0.6417545379        1.9653749266
 H         -5.5284531669        2.0673135107       -2.5154691093
 H         -5.6030049878        0.6878775529       -1.4339935269
 H         -3.5349468187        2.6903090757       -0.6811413202
 H         -3.2919699905        2.0226855437       -2.2831744451
 O         -1.9274564658        0.4000614926       -1.4694614206
 C         -1.0713998317       -0.6511208124       -1.1861494888
 O         -0.0827701477       -0.7136029536       -1.9413853605
 O         -2.8918603353       -2.0468070495        1.6053869039
 C         -0.4686647427       -2.6291826647        0.2619522283
 C          0.7977023235       -1.9958839880        0.7804815091
 C          0.8389842894       -1.5194917572        2.0882848591
 C          1.9437556490       -0.8331360423        2.5566700664
 C          3.0194171149       -0.5807444753        1.7222839714
 C          2.9798870373       -1.0415005172        0.4134447655
 C          1.8888264522       -1.7683320838       -0.0429277144
 H          1.8746240862       -2.1134359428       -1.0641369428
 N          4.0372411588       -0.7326588782       -0.4618338626
 S          4.5557913715        0.8591118677       -0.4666776072
 O          5.0195774573        1.1101730744       -1.8139259064
 O          5.5436288881        1.0389977137        0.5700549054
 C          3.1281265142        1.8691398333       -0.0966395872
 C          3.2329918259        2.8317287761        0.8877643946
 C          2.1347009530        3.6262856815        1.1729479498
 C          0.9510237303        3.4427816849        0.4749899203
 C          0.8621343267        2.4732153337       -0.5112247261
 C          1.9590375597        1.6793088297       -0.8060455532
 H          1.8864675971        0.9141523929       -1.5629928439
 H         -0.0574410027        2.3138007737       -1.0528544365
 H          0.0929520546        4.0565562090        0.6998041898
 H          2.2027224072        4.3813076264        1.9395251048
 H          4.1691153338        2.9330720153        1.4126790676
 H          3.8787839172       -1.0551344781       -1.4059232922
 H          3.8814216862       -0.0285563106        2.0607669506
 H          1.9641103851       -0.4771907771        3.5753090942
 H         -0.0165555055       -1.6813735676        2.7287764172
 H         -0.9653914556       -3.1469639880        1.0926938906
 C         -0.2536941575       -3.6123591276       -0.8686960342
 C          0.3663015586       -4.9444639147       -0.5731617848
 C         -1.0872224753       -4.8558654866       -0.9260610848
 H         -1.4071533593       -5.2167356194       -1.8921548796
 H         -1.8145154643       -5.0067930703       -0.1419554807
 H          1.0464518144       -5.3699363577       -1.2951968099
 H          0.6273997042       -5.1541514699        0.4530393240
 H         -0.0129453746       -3.1393742548       -1.8130437523
