  62
        -98.93448527
 C          2.2911774850       -0.6313587688        0.2159222455
 C          3.5483942981       -0.8898785837       -0.3806953302
 C          4.4237797465        0.2730708625       -0.5982989531
 C          3.9857808357        1.4981533746       -0.2608944304
 C          4.6850767991        2.8239068676       -0.4305971715
 C          6.1796580167        2.8864488519       -0.0862810831
 C          6.6218098281        1.9642458529        1.0593553786
 H          7.1870607099        2.5491954688        1.7872665663
 H          5.7478310509        1.5609148968        1.5736084597
 C          7.5133430944        0.8126814484        0.5883850979
 H          8.2359105191        1.2015919231       -0.1323632436
 H          8.0771825307        0.4326508403        1.4436510311
 C          6.7778935489       -0.3745500341       -0.0319933149
 H          7.5266686088       -1.0642010191       -0.4289326925
 H          6.2245794738       -0.9133321312        0.7418960914
 C          5.7865734801       -0.0257950663       -1.1542125922
 H          5.6672072470       -0.9116669550       -1.7838968553
 H          6.1580497859        0.7893559786       -1.7703142184
 H          6.7677639298        2.6567604275       -0.9736579329
 H          6.3988503780        3.9230646341        0.1752291789
 H          4.5414098657        3.1534094717       -1.4638624436
 H          4.1328088426        3.5188501409        0.2066513128
 O          2.7540254423        1.7052950050        0.2857687207
 C          1.8806598645        0.6599118981        0.5422501296
 O          0.8019186481        1.0116128049        1.0578364941
 O          3.9219737403       -2.0429745829       -0.7241061367
 C          1.3510082307       -1.7989895148        0.4629805920
 C          0.1394994565       -1.6274927089       -0.4190420879
 C          0.2871306098       -1.7980117115       -1.7935313466
 C         -0.7795189145       -1.5970584490       -2.6475663789
 C         -2.0169234507       -1.2217958172       -2.1521766284
 C         -2.1725008004       -1.0418926213       -0.7851716016
 C         -1.0989176966       -1.2516113390        0.0732461026
 H         -1.2303540487       -1.0953140258        1.1322597618
 N         -3.4283020214       -0.6814227719       -0.2571074826
 S         -4.3186626248        0.5162558086       -1.0466750486
 O         -4.8772502591       -0.0473705269       -2.2506495679
 O         -3.5249919066        1.7130559076       -1.2207699143
 C         -5.6147963707        0.7877844061        0.1452844330
 C         -5.4842678247        1.8077838593        1.0683017339
 C         -6.4849658001        1.9910481808        2.0098680960
 C         -7.5902767094        1.1534303586        2.0144979792
 C         -7.7063956960        0.1334253842        1.0818219334
 C         -6.7103476153       -0.0545229042        0.1370031633
 H         -6.7601560224       -0.8274295953       -0.6118198456
 H         -8.5682978883       -0.5140340776        1.0877922709
 H         -8.3669562153        1.2988835700        2.7486280088
 H         -6.3980519931        2.7846595037        2.7345314613
 H         -4.6109148160        2.4392842032        1.0233542389
 H         -3.3600065453       -0.4584842143        0.7274150194
 H         -2.8536578794       -1.0508081949       -2.8094816449
 H         -0.6503695319       -1.7307589899       -3.7113754831
 H          1.2564365641       -2.0788927695       -2.1824405707
 H          1.8972607583       -2.6892050449        0.1215858149
 C          1.0341331886       -1.9543636966        1.9348026755
 C          0.4643703258       -3.2465668853        2.4365402420
 C          1.8759889750       -2.8703455327        2.7696116649
 H          2.1073616339       -2.5760386468        3.7823896299
 H          2.6776806150       -3.3991581293        2.2753605226
 H         -0.2742785035       -3.2148434128        3.2228392125
 H          0.3056043535       -4.0325817861        1.7140345432
 H          0.6980452372       -1.0332964256        2.3966630654
