  62
        -98.92868546
 C         -2.5874732124       -0.9634116557        0.7107358604
 C         -2.9287975482        0.3296967353        1.1766731180
 C         -4.2724641966        0.8416505292        0.8481583289
 C         -5.1021884378        0.0569592321        0.1362326756
 C         -6.4947763337        0.3633619883       -0.3477593782
 C         -6.5063483469        1.3105329871       -1.5579378956
 C         -5.5636548283        2.5057442698       -1.4460495045
 H         -4.5429103346        2.1454467496       -1.3044821368
 H         -5.5887190080        3.0384436981       -2.4004591196
 C         -5.9080539805        3.5051540124       -0.3441861764
 H         -5.2190360241        4.3476286268       -0.4451720412
 H         -6.9199290105        3.8829531896       -0.5069481731
 C         -5.8084304353        2.9819026428        1.0905749690
 H         -6.6728259099        2.3764329492        1.3497310702
 H         -5.8280233232        3.8506669147        1.7550906869
 C         -4.5226075937        2.2231511021        1.4033405439
 H         -4.4321532165        2.1227772104        2.4917017324
 H         -3.6630443125        2.8313930127        1.0993135655
 H         -7.5280685479        1.6623531979       -1.7107915634
 H         -6.2116478377        0.7358773692       -2.4395045355
 H         -6.9380355925       -0.5888628352       -0.6475717668
 H         -7.0928823690        0.7657306113        0.4644095465
 O         -4.7341606616       -1.1830909044       -0.2910296209
 C         -3.4844628141       -1.7265240209       -0.0368834209
 O         -3.3258373486       -2.8619170513       -0.5204790401
 O         -2.1357363545        1.0398875883        1.8536705037
 C         -1.1977529634       -1.4639601368        1.0590155025
 C         -0.2064181737       -1.0894263049       -0.0138839723
 C         -0.4567688656       -1.3619087829       -1.3549491893
 C          0.4675683014       -1.0150226071       -2.3236752477
 C          1.6520296337       -0.3874792207       -1.9797416050
 C          1.9115933323       -0.1090003689       -0.6445731174
 C          0.9847149437       -0.4664285716        0.3279455461
 H          1.1833505715       -0.2373107475        1.3662580401
 N          3.0999296917        0.5512411052       -0.2869769271
 S          4.5278791271        0.0610328397       -1.0468898330
 O          4.5920915331        0.6838517613       -2.3449606188
 O          4.6243498163       -1.3813848010       -1.0324312123
 C          5.7466976267        0.7826538737        0.0331081119
 C          6.3540330365       -0.0039626373        0.9933099366
 C          7.2810734052        0.5756189902        1.8453679296
 C          7.5801854464        1.9243919641        1.7252018906
 C          6.9622469758        2.7007033251        0.7558040167
 C          6.0354644672        2.1276495055       -0.1002058331
 H          5.5368265903        2.6892166195       -0.8728113670
 H          7.1996943743        3.7482980388        0.6643524234
 H          8.3015950347        2.3729133571        2.3898190583
 H          7.7655792213       -0.0255860520        2.5977968926
 H          6.0966136129       -1.0498064351        1.0451130582
 H          3.2202223396        0.6064086796        0.7153176664
 H          2.3788823893       -0.1149473066       -2.7278172104
 H          0.2636478841       -1.2351234259       -3.3611755175
 H         -1.3787508880       -1.8533116773       -1.6281452230
 H         -0.9218066972       -0.9055559055        1.9679013981
 C         -1.1579043790       -2.9441228963        1.4111891313
 C         -0.5435959295       -3.9917775726        0.5376571669
 C          0.1380097968       -3.5876993460        1.8083075579
 H          0.1417539515       -4.2769176685        2.6389623019
 H          1.0359605669       -2.9942509714        1.7198910472
 H         -1.0356162995       -4.9509661545        0.4883688924
 H         -0.1012717962       -3.6851945988       -0.3971668048
 H         -2.0393920621       -3.2468164346        1.9674134114
