  62
        -98.93756905
 C          2.0648491605        1.1098920700       -0.0672830785
 C          2.8438770003        0.5893973190        0.9996257011
 C          3.6007499102       -0.6403410208        0.7286313703
 C          3.5000042903       -1.2124098799       -0.4846016602
 C          4.2550919101       -2.4267247196       -0.9450059411
 C          5.7115189902       -2.0474661195       -1.2814136506
 C          6.7556854000       -2.6849181404       -0.3646585110
 H          6.8740438699       -3.7353622702       -0.6385906718
 H          7.7074363401       -2.1848457804       -0.5559269204
 C          6.4521076998       -2.6229915516        1.1352661091
 H          5.7317341097       -3.3996248417        1.3964133583
 H          7.3788804697       -2.8696697621        1.6574767190
 C          5.9344134300       -1.2773307919        1.6593884701
 H          6.3901399899       -1.0952300028        2.6346915403
 H          6.2475120402       -0.4635116114        1.0052309507
 C          4.4090596899       -1.2114852119        1.8610429399
 H          4.1970878799       -0.5569405625        2.7115798104
 H          4.0300735498       -2.2064441920        2.1112600091
 H          5.9345280103       -2.3383873988       -2.3090039808
 H          5.8004827604       -0.9600606296       -1.2364708597
 H          4.2259317999       -3.1911780902       -0.1715382817
 H          3.7457914402       -2.8082411288       -1.8304105414
 O          2.7381758805       -0.6919557090       -1.4794697299
 C          1.9962117606        0.4664168410       -1.3022893491
 O          1.3477528808        0.7949440219       -2.3172367789
 O          2.9036155203        1.1369859881        2.1327271516
 C          1.2599845507        2.3670782399        0.2277907624
 C         -0.1651109894        1.9741809999        0.5351014719
 C         -0.6456463396        2.0044420189        1.8393048218
 C         -1.9295838297        1.5765938288        2.1283001913
 C         -2.7552047596        1.0991189198        1.1259113408
 C         -2.2794934595        1.0552519507       -0.1776851392
 C         -1.0021735594        1.5071167508       -0.4687755786
 H         -0.6341563192        1.4471689515       -1.4822615686
 N         -3.1018943494        0.5241190117       -1.1977926897
 S         -3.4209540997       -1.1235313984       -1.0373741310
 O         -2.3463543398       -1.8061363091       -0.3508299914
 O         -3.7343241896       -1.5910913673       -2.3703574215
 C         -4.8999705198       -1.1658110290       -0.0462351813
 C         -4.8843798100       -1.7869220300        1.1871364882
 C         -6.0475680801       -1.8078359104        1.9411592381
 C         -7.1987540600       -1.2105022699        1.4507873784
 C         -7.1981258597       -0.5923785789        0.2089615589
 C         -6.0392166196       -0.5689016584       -0.5503742809
 H         -5.9949808995       -0.1050885977       -1.5215326106
 H         -8.0953769696       -0.1294099684       -0.1688565709
 H         -8.1018729501       -1.2273738802        2.0401446883
 H         -6.0495535903       -2.2880775112        2.9064804677
 H         -3.9633237902       -2.2320241704        1.5282468480
 H         -2.7193214793        0.6887039523       -2.1197324095
 H         -3.7528015997        0.7542541797        1.3443058904
 H         -2.2887347198        1.6079622981        3.1455627513
 H          0.0063143304        2.3447445282        2.6307032422
 H          1.6990263306        2.7795374591        1.1458709327
 C          1.3461881410        3.4176184407       -0.8601172868
 C          0.9765557911        4.8319608205       -0.5304184557
 C          2.4093616011        4.4700506805       -0.7783111458
 H          2.8766290113        4.8005477312       -1.6938007155
 H          3.0812418910        4.4372860498        0.0669063842
 H          0.4567931013        5.4145894612       -1.2752528053
 H          0.6765510210        5.0450936498        0.4843084344
 H          1.0945759110        3.0464951316       -1.8448673871
