  62
        -98.94658312
 C          0.1213119649       -1.9535407723        0.6363247508
 C         -0.5320416006       -2.2775513822       -0.5771695140
 C         -1.9805054454       -2.0448087877       -0.5994679328
 C         -2.5989480786       -1.5614562405        0.4931162731
 C         -4.0754475091       -1.3056073254        0.6287145088
 C         -4.5259522800        0.0537004694        0.0777755233
 C         -4.5195339266        0.1805365311       -1.4455621238
 H         -5.0740111788       -0.6496823354       -1.8840476244
 H         -5.0576892229        1.0974155067       -1.6925405108
 C         -3.1165305937        0.2499353715       -2.0648919566
 H         -3.0812407185        1.0553766961       -2.8014506111
 H         -2.3854936069        0.4954709027       -1.2902225008
 C         -2.6782450723       -1.0312921077       -2.7749119635
 H         -3.3173960136       -1.2065647899       -3.6433130251
 H         -1.6540319652       -0.8941294673       -3.1317085483
 C         -2.7057073648       -2.2836413026       -1.8888718547
 H         -2.1890963660       -3.0888092104       -2.4170180150
 H         -3.7339911490       -2.5911157610       -1.7005904918
 H         -5.5444453542        0.2271992986        0.4321689295
 H         -3.8819712943        0.8252595276        0.5022214184
 H         -4.6301144989       -2.1051621342        0.1366586396
 H         -4.2992055990       -1.3347870281        1.6971685299
 O         -1.9330597589       -1.2630793582        1.6412319735
 C         -0.5593885867       -1.4243090252        1.7315467699
 O         -0.0697726919       -1.0682908012        2.8234026508
 O          0.0585683657       -2.7399573015       -1.5873372119
 C          1.6282095560       -2.1042014762        0.7365326076
 C          2.2746354140       -1.2299007595       -0.3114008153
 C          3.2380983012       -1.6753325466       -1.2057645134
 C          3.7651574938       -0.8115004082       -2.1506183303
 C          3.3664991981        0.5111299424       -2.2048830247
 C          2.4130447320        0.9709689473       -1.3030990609
 C          1.8697332096        0.0978773907       -0.3767834071
 H          1.1205210563        0.4564019683        0.3147679285
 N          1.9813449672        2.3069104315       -1.3158097653
 S          1.7923840672        3.1136054137        0.1426048313
 O          2.0223316904        4.5054051075       -0.1862581501
 O          2.6427818202        2.5541807588        1.1664036883
 C          0.0757136132        2.9330268404        0.5774380674
 C         -0.8657591942        3.5249956863       -0.2425778710
 C         -2.1989123966        3.4862636037        0.1300788764
 C         -2.5674451993        2.8620025290        1.3131839286
 C         -1.6142799351        2.2521296323        2.1139187164
 C         -0.2782831237        2.2902619142        1.7464787058
 H          0.4859422014        1.8284183580        2.3531383407
 H         -1.8961225239        1.7414093482        3.0212978765
 H         -3.6019482164        2.8599449314        1.6202467031
 H         -2.9462654010        3.9470594931       -0.4953594905
 H         -0.5361156252        4.0186112969       -1.1414988184
 H          2.4436104660        2.8911031614       -1.9977934968
 H          3.7848565255        1.1845844305       -2.9376555113
 H          4.5042494387       -1.1723984438       -2.8498692634
 H          3.5692686438       -2.7001055392       -1.1716167021
 H          1.9137117866       -1.7126243415        1.7244349831
 C          2.0284820264       -3.5616723844        0.6534481192
 C          3.2957349111       -4.0317383909        1.3000891276
 C          1.9699365569       -4.3991932164        1.8940676997
 H          1.6316282642       -5.4210965100        1.8114718561
 H          1.6637691165       -3.9107240244        2.8080372268
 H          3.8689154604       -4.8055354696        0.8120586680
 H          3.8958284363       -3.2970405363        1.8158934636
 H          1.7239566663       -4.0250297172       -0.2776763612
