  62
        -98.94444505
 C          1.7860526498        0.6410798101       -0.0203885989
 C          2.9354553096        1.2304157199        0.5588055516
 C          4.2115652397        0.9194495206       -0.0943117185
 C          4.2279441300        0.1308522715       -1.1845070691
 C          5.4463278301       -0.2508452677       -1.9811872293
 C          6.2204185303       -1.4463625079       -1.4091206702
 C          7.0091163902       -1.1590909187       -0.1308838099
 H          7.6707466103       -2.0115284787        0.0355035495
 H          7.6397362400       -0.2827534385       -0.2837934892
 C          6.1385941600       -0.9586516499        1.1174460302
 H          5.1363194401       -1.3500985399        0.9278624998
 H          6.5546126601       -1.5336413004        1.9478426698
 C          6.0236447697        0.4927241398        1.5834157613
 H          5.3573972696        0.5231740790        2.4493119412
 H          7.0042425296        0.8541989297        1.9006571216
 C          5.4683365096        1.4537619804        0.5241086320
 H          6.2192335496        1.6430925412       -0.2425612478
 H          5.2211276093        2.3985146400        1.0143071927
 H          5.5175778705       -2.2631440482       -1.2286744108
 H          6.9229324004       -1.7768958872       -2.1777267904
 H          6.1123963599        0.6083696525       -2.0656826586
 H          5.0925303202       -0.5163082470       -2.9797829796
 O          3.0986363401       -0.4086531584       -1.7172536696
 C          1.8545347800       -0.1832456891       -1.1431889395
 O          0.9122527302       -0.7586063689       -1.7204103100
 O          2.8955309994        1.9799180791        1.5709554622
 C          0.4293690697        0.9239765693        0.5977309412
 C         -0.2570126001       -0.3600886612        0.9898136802
 C          0.4520191501       -1.3034272116        1.7298493595
 C         -0.1389911197       -2.4910432520        2.1126168886
 C         -1.4516140096       -2.7633341220        1.7687356583
 C         -2.1738641498       -1.8241396216        1.0433131189
 C         -1.5786250000       -0.6268990612        0.6675373299
 H         -2.1538488101        0.0830503891        0.0977848304
 N         -3.5204040997       -2.0527437217        0.7325424087
 S         -4.2219812197       -1.4661782208       -0.6659575109
 O         -5.4448788496       -2.2330607809       -0.7895578516
 O         -3.3290637596       -1.5178403697       -1.7988137909
 C         -4.6473982401        0.2206195689       -0.2851644797
 C         -5.1377840703        0.5259121878        0.9691539705
 C         -5.5104503206        1.8325173275        1.2414818615
 C         -5.3974183307        2.8046769983        0.2593000422
 C         -4.9079787506        2.4809663993       -0.9968722880
 C         -4.5281833903        1.1766839996       -1.2741143590
 H         -4.1288934501        0.8833694504       -2.2324383192
 H         -4.8198666507        3.2372336899       -1.7609932274
 H         -5.6891033110        3.8208041281        0.4729096230
 H         -5.8888788507        2.0889664767        2.2177800716
 H         -5.2134339802       -0.2542135428        1.7077897299
 H         -3.8676343595       -2.9697682719        0.9715673379
 H         -1.9132019894       -3.6947922823        2.0592920275
 H          0.4266391504       -3.2156595723        2.6790870781
 H          1.4797129100       -1.0935627615        1.9939524797
 H          0.6442940895        1.4907629186        1.5165138316
 C         -0.3975984005        1.7956349198       -0.3238886582
 C         -1.3937029207        2.7588910492        0.2473999125
 C         -0.1230994108        3.2681721199       -0.3619792871
 H         -0.1715639208        3.7762527706       -1.3133433267
 H          0.6482891391        3.6433772396        0.2945276233
 H         -2.3198450407        2.9186220494       -0.2834154675
 H         -1.4897373708        2.7957906083        1.3218154125
 H         -0.6335581403        1.3043343605       -1.2623077386
