  62
        -98.93122763
 C         -2.3749469697       -0.6482498302        0.0425068295
 C         -3.5051744896       -0.6898357205        0.8883226096
 C         -4.7666255397       -0.1630858303        0.3353577400
 C         -4.7802330498        0.3006374702       -0.9275340998
 C         -5.9325056699        0.8854266905       -1.7047989595
 C         -7.2797542599        0.1548862605       -1.5931654696
 C         -8.3304710598        0.9346921601       -0.8008308992
 H         -8.2463908898        1.9922771002       -1.0594924188
 H         -9.3225823399        0.6010695903       -1.1130766592
 C         -8.2475878297        0.7779702596        0.7165571107
 H         -8.9492441196        1.4877879494        1.1610547411
 H         -8.5800662696       -0.2244182205        0.9950622104
 C         -6.8631063496        1.0121532593        1.3243217307
 H         -7.0005401195        1.2725099389        2.3761037508
 H         -6.3750450896        1.8620918295        0.8485236109
 C         -5.9483949196       -0.2203838606        1.2648598401
 H         -5.5123940695       -0.4013123210        2.2524953600
 H         -6.5381011096       -1.1115034106        1.0308997398
 H         -7.1314207599       -0.8317564497       -1.1570926000
 H         -7.6625286500        0.0067115508       -2.6041936996
 H         -5.5977773800        0.8910084309       -2.7445780095
 H         -6.0524589399        1.9314743204       -1.4119081791
 O         -3.6618875699        0.3197239405       -1.7090824799
 C         -2.4386137699       -0.1406459697       -1.2540095603
 O         -1.5121259900       -0.0512141494       -2.0811951203
 O         -3.4634537095       -1.1425086110        2.0653351195
 C         -1.0468203297       -1.1661068104        0.5600499192
 C         -0.0017097097       -0.0777810004        0.5217176295
 C         -0.3296570096        1.1920306295        0.9896341200
 C          0.6015006404        2.2121899795        0.9811124803
 C          1.8845725903        1.9898331096        0.5129919301
 C          2.2295723303        0.7235650298        0.0632817995
 C          1.2908806403       -0.3023300702        0.0753897193
 H          1.5749320902       -1.2809406501       -0.2793338211
 N          3.5303694402        0.4878893600       -0.4141780607
 S          4.8101607403        1.1821565997        0.4428274694
 O          4.6052172605        1.0108484591        1.8636090694
 O          4.9810149703        2.5405877098       -0.0085386801
 C          6.1773323403        0.1833940699       -0.1131399111
 C          6.5902882103       -0.8850170904        0.6602636384
 C          7.6397473903       -1.6711886602        0.2113056580
 C          8.2528970102       -1.3787389098       -0.9977301019
 C          7.8267503801       -0.3031562495       -1.7629536615
 C          6.7785719201        0.4876546003       -1.3197874510
 H          6.4195319301        1.3378142306       -1.8759742107
 H          8.3078047800       -0.0780788791       -2.7011082514
 H          9.0700394101       -1.9914727497       -1.3443808123
 H          7.9750921504       -2.5062181605        0.8051414977
 H          6.0905098104       -1.0691998708        1.5977894884
 H          3.6983965902       -0.4901185899       -0.6064590611
 H          2.6217185303        2.7766411396        0.5002638403
 H          0.3277209804        3.1927848793        1.3416765207
 H         -1.3308152596        1.3709214593        1.3582293202
 H         -1.2259337496       -1.4264320808        1.6143371391
 C         -0.6494682098       -2.4209067701       -0.1896060013
 C          0.1617053503       -3.4851888503        0.4858816382
 C         -1.2887080397       -3.7209977002        0.1928706682
 H         -1.5526974198       -4.4158566199       -0.5901243120
 H         -1.9884665696       -3.7041031205        1.0156217783
 H          0.8929998303       -4.0250409201       -0.0969376421
 H          0.4494097404       -3.3180674607        1.5129782582
 H         -0.4822395099       -2.2367889897       -1.2451705213
