  62
        -98.93823638
 C          0.5128435866        1.7468106469        0.0317093524
 C          1.4829236054        1.3560395866        0.9817916678
 C          2.7461620343        0.8018324328        0.4554731070
 C          2.8751942102        0.6185819429       -0.8724308411
 C          4.0390591104        0.1419255444       -1.7180159453
 C          5.3777695830       -0.1874611221       -1.0647857886
 C          5.4071463411       -1.5362156646       -0.3417868142
 H          6.3060470241       -1.5849892242        0.2756588331
 H          5.4803735331       -2.3230993628       -1.0962707278
 C          4.1848769268       -1.8443658939        0.5190243399
 H          4.2627907013       -2.8833867257        0.8494145004
 H          3.2810465809       -1.7549258177       -0.0840374134
 C          4.0260648733       -0.9748354078        1.7616832663
 H          4.9057766505       -1.0766646542        2.4011550808
 H          3.1614206234       -1.3397085632        2.3232270060
 C          3.8050863447        0.5170465497        1.4853435432
 H          4.7415455981        1.0014937564        1.2178733670
 H          3.4527828250        0.9807119720        2.4120408673
 H          5.6724377788        0.6225608901       -0.4033923589
 H          6.1217062872       -0.2252701556       -1.8646711111
 H          3.6850446997       -0.7259077268       -2.2832219376
 H          4.1961487420        0.9386062702       -2.4527614219
 O          1.8585457705        0.9070636497       -1.7400224408
 C          0.6880532698        1.5228167156       -1.3316405660
 O         -0.0950963069        1.8051435398       -2.2573870223
 H         -1.4586251457       -0.0618936426        0.3694147041
 C         -2.2101306469        0.5868585503       -0.0596238157
 C         -1.9873806250        1.9585331923       -0.0947728598
 C         -2.9670315572        2.7767283622       -0.6438158821
 C         -4.1317674697        2.2331316148       -1.1550889893
 C         -4.3523695470        0.8703085458       -1.1118307677
 C         -3.3825125479        0.0415872883       -0.5576486193
 N         -3.5805568002       -1.3449905137       -0.5221037357
 S         -2.9359967859       -2.2947887983        0.6838206782
 O         -3.7343314886       -3.5030587686        0.6522911521
 O         -2.8901387872       -1.6066811415        1.9528880500
 C         -1.2968472832       -2.7010586536        0.1268729781
 C         -0.2970326973       -2.8687373881        1.0637035434
 C          0.9536267989       -3.2894636516        0.6422244735
 C          1.1836685324       -3.5283416682       -0.7038127123
 C          0.1730988607       -3.3416893805       -1.6340638133
 C         -1.0830302709       -2.9313890192       -1.2172316318
 H         -1.8919931092       -2.7835137229       -1.9130935806
 H          0.3575949563       -3.5193686353       -2.6814547937
 H          2.1563454611       -3.8634165084       -1.0282317416
 H          1.7411076559       -3.4305180529        1.3648253987
 H         -0.5151731755       -2.6620600970        2.0998083081
 H         -4.4901033737       -1.6619845095       -0.8226536016
 H         -5.2627951084        0.4445286537       -1.5053171154
 H         -4.8802985949        2.8807139093       -1.5857949431
 H         -2.8189727401        3.8432652559       -0.6767414716
 C         -0.7148728796        2.5032918740        0.5019736683
 H         -0.7589507138        2.3501974039        1.5912005630
 C         -0.5096190791        3.9820718749        0.2310721858
 C         -1.1279178996        5.0150052152        1.1242691301
 C          0.3507165440        4.7770373363        1.1652530367
 H          1.0074719172        5.5267402926        0.7497841079
 H          0.7651830913        4.2574340806        2.0165694464
 H         -1.7204037227        4.6654213697        1.9562330948
 H         -1.4852345240        5.9329485035        0.6822201429
 H         -0.4288299665        4.2013924303       -0.8286039521
 O          1.3180596857        1.4947476761        2.2246588417
