  62
        -98.94382972
 C         -1.5055779102       -1.5801712200       -0.1591001893
 C         -1.3867888001       -0.2684754501        0.3655055209
 C         -2.6495135600        0.3664647897        0.7738323416
 C         -3.8035707099       -0.3195015805        0.7053886820
 C         -5.1607005798        0.1824250493        1.1186095927
 C         -5.8797468204        1.0046576795        0.0404845732
 C         -5.3067468506        2.4015878496       -0.2011954267
 H         -5.2305079503        2.9306595994        0.7492009434
 H         -6.0286978010        2.9412916196       -0.8174291063
 C         -3.9454833510        2.4118872799       -0.9105740673
 H         -3.9584845414        3.1553068501       -1.7108609872
 H         -3.7733263711        1.4409255800       -1.3808916776
 C         -2.7590375106        2.7415431498       -0.0045324978
 H         -2.8559033105        3.7654710697        0.3627595225
 H         -1.8465800308        2.6780612001       -0.6016608182
 C         -2.5988269399        1.8029065696        1.1983330519
 H         -3.3673141696        2.0085993493        1.9430141323
 H         -1.6165364297        1.9788882996        1.6434073615
 H         -6.9213705502        1.1108282093        0.3525692637
 H         -5.8702738507        0.4396948997       -0.8946887869
 H         -5.0699186194        0.7751206091        2.0293386928
 H         -5.7648343696       -0.7008119708        1.3374776928
 O         -3.8638934700       -1.6044169504        0.2621903717
 C         -2.7285507101       -2.2546786201       -0.1942427389
 O         -2.9330366602       -3.4214601701       -0.5866807491
 O         -0.3009007101        0.3490364900        0.4963321505
 C         -0.2929661303       -2.3501882498       -0.6534914301
 C          0.8403884601       -2.1997768699        0.3299104894
 C          0.6907766208       -2.7367697402        1.6061846694
 C          1.6904723412       -2.6043389403        2.5497882690
 C          2.8580229510       -1.9278910701        2.2426257186
 C          3.0174018103       -1.3913223298        0.9707699986
 C          2.0163819199       -1.5363224797        0.0203536291
 H          2.1627404194       -1.1042950794       -0.9547182209
 N          4.1960266401       -0.7150884396        0.6292994482
 S          4.2052513694        0.5277449907       -0.4808530315
 O          4.0579176089        0.0034257410       -1.8165188715
 O          5.4548475295        1.2141515708       -0.2193065119
 C          2.8533920695        1.6220174704       -0.0890091706
 C          2.0841633790        2.1251663906       -1.1160739502
 C          1.0852260890        3.0375418604       -0.8219491695
 C          0.8706582496        3.4258967601        0.4898481207
 C          1.6479812701        2.9058754800        1.5116302002
 C          2.6530647201        1.9989542301        1.2226595596
 H          3.2731285005        1.5838061600        2.0007793992
 H          1.4702013705        3.2011749397        2.5336001404
 H          0.0872988396        4.1319997700        0.7176885512
 H          0.4753515386        3.4371678905       -1.6175167391
 H          2.2760780286        1.7884828808       -2.1225427703
 H          4.8370346504       -0.5489467697        1.3903739380
 H          3.6386126413       -1.8158882202        2.9796855482
 H          1.5586712317       -3.0238309605        3.5358803989
 H         -0.2286843491       -3.2523613703        1.8499976397
 H         -0.6041093802       -3.4080835398       -0.6526257602
 C          0.1107447190       -2.0163622694       -2.0816944202
 C         -0.9149396915       -1.6286366293       -3.1033698796
 C          0.0801334486       -0.6188149993       -2.6199757299
 H          0.8734335683       -0.3167985791       -3.2889659001
 H         -0.2555823112        0.1647971905       -1.9593848695
 H         -0.8138177919       -2.0169500191       -4.1057322798
 H         -1.9394168014       -1.5387903495       -2.7717175591
 H          0.9200557789       -2.6509973392       -2.4314785207
