  62
        -98.93860872
 C          2.0746265451       -0.9306191482        0.4473383034
 C          3.1353991543       -1.1734180205       -0.4569027201
 C          4.3967296287       -0.4435430210       -0.2264955662
 C          4.4668862232        0.4120035756        0.8103039069
 C          5.6182802010        1.2942442371        1.2134898646
 C          5.7664600242        2.5269671594        0.3067345165
 C          5.6211760681        2.2486908332       -1.1871566434
 H          4.6466948872        1.7933984085       -1.3735698152
 H          5.6326762882        3.2108521604       -1.7061776114
 C          6.7161132153        1.3761884985       -1.7963732244
 H          6.5337062495        1.3321636620       -2.8731749520
 H          7.6843139454        1.8583711526       -1.6437157367
 C          6.7992741501       -0.0580360094       -1.2700224126
 H          7.4469981185       -0.6172834999       -1.9515485821
 H          7.2773855872       -0.0905391964       -0.2947482037
 C          5.4670840794       -0.8000211228       -1.2299231703
 H          5.6677829803       -1.8676671040       -1.0789005259
 H          4.9907835015       -0.7338446797       -2.2146869990
 H          4.9929859677        3.2464241824        0.5868358536
 H          6.7381801705        2.9838057138        0.5018000538
 H          5.4110272711        1.6345876494        2.2305239937
 H          6.5386426128        0.7183310835        1.2386829420
 O          3.4148297790        0.6220767927        1.6515823779
 C          2.2033127793       -0.0282434944        1.5022165002
 O          1.3529474818        0.2755732053        2.3610058499
 O          3.0381299364       -1.9712053174       -1.4279974981
 C          0.7586367158       -1.6570847113        0.2224353006
 C         -0.2685898413       -0.6443722281       -0.2182719305
 C         -0.2754496056       -0.2230562896       -1.5455227689
 C         -1.1627229462        0.7453129067       -1.9758246116
 C         -2.0609437467        1.3169520260       -1.0914770050
 C         -2.0630496649        0.9020443577        0.2336089631
 C         -1.1812777259       -0.0829803845        0.6610561443
 H         -1.1834869636       -0.3818415422        1.6970894833
 N         -2.9678156253        1.4799553979        1.1374432982
 S         -4.5504253652        1.7062900087        0.6538416733
 O         -4.6499924889        2.8970954274       -0.1536421287
 O         -5.3249025051        1.7064063856        1.8750880215
 C         -4.9435447449        0.2739803500       -0.3352926706
 C         -5.2709548303        0.4233771497       -1.6673268240
 C         -5.5415936719       -0.7069828111       -2.4220443171
 C         -5.4773044090       -1.9607548884       -1.8347888880
 C         -5.1503076054       -2.0943219628       -0.4938367429
 C         -4.8793708740       -0.9678716896        0.2653220802
 H         -4.6277403721       -1.0365311621        1.3114239375
 H         -5.1022685299       -3.0706512390       -0.0389215493
 H         -5.6840884805       -2.8400482986       -2.4242355973
 H         -5.7982695214       -0.6059076876       -3.4642623850
 H         -5.3087317040        1.4166537287       -2.0841156504
 H         -2.9028031623        1.1182759112        2.0767599070
 H         -2.7458923268        2.0887934543       -1.4028897850
 H         -1.1538019527        1.0632683032       -3.0072545408
 H          0.4368269526       -0.6579658483       -2.2326584538
 H          0.9463472443       -2.3394232135       -0.6174329049
 C          0.3445782626       -2.4719623290        1.4291849292
 C         -0.7129833121       -3.5228022881        1.2757794275
 C          0.7148679721       -3.9222232314        1.4930835188
 H          0.9960980947       -4.3393553374        2.4485481713
 H          1.2639725236       -4.3347477496        0.6594714622
 H         -1.4151221177       -3.6705498028        2.0819935276
 H         -1.1328844837       -3.6632800390        0.2914773073
 H          0.3789046833       -1.9143966461        2.3572820746
