  62
        -98.94351092
 C          1.7152376037        1.3778953811        0.6347613375
 C          2.5942126531        1.0278810290       -0.4195173928
 C          3.4130026044       -0.1746337006       -0.1959756295
 C          3.2589583760       -0.8842500617        0.9359416994
 C          3.9958197912       -2.1498763598        1.2641878690
 C          3.2268910418       -3.3880855360        0.7833875760
 C          2.7554742839       -3.2962378733       -0.6678729902
 H          2.2564758390       -4.2372554914       -0.9094035425
 H          2.0114246597       -2.5008790960       -0.7495759164
 C          3.8762841967       -3.0443267946       -1.6858978413
 H          3.7333327178       -3.7130089451       -2.5374047287
 H          4.8430073961       -3.2876026312       -1.2434329512
 C          3.9175802655       -1.6194676773       -2.2407075491
 H          2.9254635501       -1.3352801222       -2.6001711681
 H          4.5922786224       -1.6090630250       -3.1009487449
 C          4.4034801723       -0.5393716543       -1.2662644362
 H          5.3536354982       -0.8443364206       -0.8228090967
 H          4.5716757235        0.3748046440       -1.8429163371
 H          3.8696848032       -4.2617894222        0.9059469915
 H          2.3511864683       -3.5167234339        1.4234432684
 H          4.9807907085       -2.1187078558        0.8022485764
 H          4.1156741035       -2.2054780327        2.3475206537
 O          2.3690143927       -0.5449438047        1.9034920177
 C          1.5797419431        0.5827492845        1.7764879835
 O          0.8047669850        0.7754116291        2.7359660106
 O          2.7127798035        1.6736031089       -1.4927286420
 C          0.8108485619        2.6011419314        0.5765962200
 C         -0.4059946151        2.2468811267       -0.2431605331
 C         -0.4153592032        2.3067027343       -1.6318109513
 C         -1.5394760643        1.9181967816       -2.3393800452
 C         -2.6716636597        1.4662969513       -1.6839356144
 C         -2.6661514370        1.3902201970       -0.2970386424
 C         -1.5386126048        1.7805454819        0.4114710845
 H         -1.5280977608        1.7056349170        1.4909951034
 N         -3.8115721072        0.9340320453        0.3866279526
 S         -4.4231181569       -0.5736218943       -0.0019515639
 O         -4.9359326147       -0.5438882860       -1.3477499634
 O         -5.3760602451       -0.8767385138        1.0405236849
 C         -3.0329855778       -1.6853139991        0.0984374208
 C         -2.2455755629       -1.8924656469       -1.0162878102
 C         -1.1444384108       -2.7268139397       -0.9098337180
 C         -0.8517884747       -3.3346537349        0.3011727290
 C         -1.6494411621       -3.1120365074        1.4127500485
 C         -2.7487258734       -2.2752334799        1.3138158186
 H         -3.3996140334       -2.0829352510        2.1517453927
 H         -1.4166571001       -3.5842408044        2.3537735560
 H          0.0028731457       -3.9879472647        0.3783169958
 H         -0.5190746536       -2.9010186168       -1.7710228540
 H         -2.5099245492       -1.4103451678       -1.9430438576
 H         -3.7293652216        1.0123262936        1.3905865755
 H         -3.5530619393        1.1601238488       -2.2239552263
 H         -1.5357916995        1.9702615009       -3.4177189734
 H          0.4704855888        2.6327055891       -2.1526368541
 H          0.4764405489        2.7708397786        1.6089582536
 C          1.5123571353        3.8523610755        0.0923938844
 C          0.8606828471        5.1802436702        0.3302908135
 C          2.0905884771        4.8003941374        1.0976176933
 H          3.0204530238        5.2960275571        0.8621823209
 H          1.9829455310        4.5512371385        2.1435648918
 H          0.9433101789        5.9392060411       -0.4323118861
 H         -0.0827399039        5.1866551290        0.8556364269
 H          2.0619958130        3.7176793603       -0.8289190246
