  62
        -98.93930679
 C          2.0324184134        0.8810517198        0.0225442459
 C          2.3156697407       -0.1026768952        0.9948069073
 C          2.3405592576       -1.5007160073        0.5337665540
 C          2.0893503107       -1.7717271274       -0.7608546508
 C          1.9724852979       -3.0901297355       -1.4980272889
 C          2.4692822125       -4.3880604535       -0.8665419890
 C          3.9847233219       -4.4728633256       -0.6877541572
 H          4.4469966600       -4.5449927501       -1.6752359111
 H          4.2127986705       -5.3921665118       -0.1442066920
 C          4.6279811494       -3.2938610805        0.0376041479
 H          4.4899707476       -2.3830412456       -0.5484797123
 H          5.7034042265       -3.4821265949        0.0940829951
 C          4.1244616727       -3.0486282761        1.4585957013
 H          4.7751924882       -2.2971890310        1.9133959505
 H          4.2123013939       -3.9657787687        2.0440083226
 C          2.6784898537       -2.5335433188        1.5704371669
 H          2.5679751222       -2.0385899903        2.5399980236
 H          1.9600877748       -3.3500779708        1.5427149902
 H          2.1700165103       -5.1951379209       -1.5408418555
 H          1.9622672001       -4.5629970990        0.0778679073
 H          2.4785872480       -2.9408410951       -2.4573135243
 H          0.9054755033       -3.1977564200       -1.7255844494
 O          1.8325150519       -0.7842728242       -1.6682501061
 C          1.7721533195        0.5489097108       -1.3055802704
 O          1.5035188961        1.3260627458       -2.2423606044
 O          2.5272006217        0.1737148169        2.2084959992
 C          1.9018550760        2.3319644527        0.4474328193
 C          0.5034569485        2.8107122600        0.1400542144
 C          0.2200882837        4.0476005126       -0.4240263174
 C         -1.0861744771        4.3968201340       -0.7220682764
 C         -2.1286323745        3.5220298406       -0.4797140073
 C         -1.8568682379        2.2898906483        0.1056117132
 C         -0.5535629768        1.9571060960        0.4306584266
 H         -0.3559130088        0.9960511187        0.8843830114
 N         -2.8898729651        1.3779659307        0.3895898153
 S         -2.5471941970       -0.2715023192        0.2576684119
 O         -1.9301964765       -0.7161341315        1.4833983791
 O         -1.8247505641       -0.5471436668       -0.9639787749
 C         -4.2041240332       -0.9253559492        0.1592210189
 C         -4.9336667468       -1.0574678536        1.3258791953
 C         -6.2335666250       -1.5321528730        1.2528345806
 C         -6.7797028671       -1.8643867796        0.0217517714
 C         -6.0348725130       -1.7285634982       -1.1400700185
 C         -4.7344392946       -1.2527611523       -1.0741785890
 H         -4.1139791600       -1.1367031549       -1.9486169544
 H         -6.4601780182       -1.9906552954       -2.0953954782
 H         -7.7913043319       -2.2343131989       -0.0325313038
 H         -6.8144905087       -1.6417026883        2.1542615849
 H         -4.4622425612       -0.7954068837        2.2586305987
 H         -3.7542159408        1.6112537817       -0.0809047310
 H         -3.1425369225        3.7856656751       -0.7395735624
 H         -1.2922912881        5.3576762682       -1.1687693330
 H          1.0228571771        4.7318246168       -0.6450960776
 H          2.0374573168        2.3327984348        1.5398249225
 C          2.9857581410        3.1811125602       -0.1823793411
 C          3.4996327151        4.3997570377        0.5230104953
 C          4.3550752171        3.1736116486        0.4261912214
 H          5.2111711308        3.1889906052       -0.2313745964
 H          4.4970111212        2.5745747098        1.3139471179
 H          3.7730190453        5.2604856511       -0.0684102774
 H          3.0680181019        4.6402679480        1.4827783266
 H          2.9178826914        3.2011183956       -1.2644139364
