  62
        -98.93614176
 C          2.3525537801        1.1564125799       -0.0081289798
 C          3.3627799899        0.7468351597        0.9029873703
 C          4.4098533100       -0.1404461203        0.3782774205
 C          4.3628824302       -0.5090120001       -0.9144458696
 C          5.3082687103       -1.4626882301       -1.5878380495
 C          4.9638315002       -2.9140437901       -1.1968903598
 C          6.0437442600       -3.6181229403       -0.3751087396
 H          5.6075900498       -4.5393126503        0.0170203601
 H          6.8663933801       -3.8985227902       -1.0362881895
 C          6.6306759397       -2.8103552104        0.7863264306
 H          7.3689174699       -2.1030406304        0.4054832408
 H          7.1731706096       -3.5143579405        1.4208858006
 C          5.6192405696       -2.0463956105        1.6506810605
 H          4.6326963496       -2.5058254905        1.5865737402
 H          5.9377105894       -2.1218718407        2.6923456405
 C          5.5044939097       -0.5453048405        1.3266095506
 H          5.2855607696       -0.0042033706        2.2518127407
 H          6.4641827798       -0.1787839705        0.9515674109
 H          4.7843077303       -3.5007040100       -2.0991321899
 H          4.0263386500       -2.9045904601       -0.6369070700
 H          5.1989233806       -1.3224211299       -2.6634670395
 H          6.3318010403       -1.2233138902       -1.3077309493
 O          3.3812663404       -0.1002589700       -1.7570364098
 C          2.3592195404        0.7391956000       -1.3385133499
 O          1.5512700506        1.0188151402       -2.2483646100
 H         -0.3748483097        0.8469203901       -1.1985768704
 C         -0.7553668899        0.8221203300       -0.1879896505
 C         -0.0116423901        1.3984132399        0.8321807497
 C         -0.5128005803        1.3485964997        2.1278368196
 C         -1.7271735904        0.7394301997        2.3914697393
 C         -2.4644968302        0.1659650199        1.3712237290
 C         -1.9704890400        0.2056620601        0.0738895991
 N         -2.7035154098       -0.3930518798       -0.9683954911
 S         -4.2929974297        0.1098734603       -1.1806775114
 O         -4.6033401294       -0.1722459995       -2.5651762415
 O         -4.4780721997        1.4755207303       -0.7461626512
 C         -5.2339318300       -0.9900595198       -0.1431687017
 C         -5.1094900000       -2.3495347697       -0.3530944219
 C         -5.8449426602       -3.2184278098        0.4370307179
 C         -6.6900623404       -2.7161879099        1.4156130577
 C         -6.8065177504       -1.3486085299        1.6115221179
 C         -6.0726325502       -0.4738981799        0.8252493182
 H         -6.1262485001        0.5964268501        0.9444843583
 H         -7.4644269905       -0.9602162000        2.3722445378
 H         -7.2614548505       -3.3950838400        2.0287503675
 H         -5.7571207002       -4.2825296898        0.2874666977
 H         -4.4449239798       -2.6978527097       -1.1261188918
 H         -2.2129120096       -0.3791419897       -1.8517726310
 H         -3.4109270503       -0.3100228701        1.5697161188
 H         -2.1037206006        0.7099495596        3.4024622592
 H          0.0614468795        1.7857125496        2.9317126098
 C          1.2932360800        2.0997874398        0.5370767401
 H          1.7005844498        2.4570945297        1.4924472102
 C          1.0538642603        3.3020496400       -0.3570589898
 C          0.4689801202        4.5457592099        0.2388768702
 C          1.9050679303        4.5230869199       -0.1896256795
 H          2.1920160005        5.0752039700       -1.0719819093
 H          2.6656529301        4.4996307398        0.5771795607
 H         -0.2362661296        5.1145006900       -0.3476362899
 H          0.2558583400        4.5400107998        1.2970504202
 H          0.7563939805        3.0387848201       -1.3640659799
 O          3.3912229996        1.1209685895        2.1057509104
