  62
        -98.94441226
 C          1.9516178995       -1.3528074003       -0.0643327944
 C          2.2306686212       -0.3924803370        0.9380132634
 C          3.6032673920        0.1364566420        0.9594840199
 C          4.5036310056       -0.3075376206        0.0648694639
 C          5.9142056276        0.1891747245       -0.0573334421
 C          6.0084870779        1.3560443372       -1.0503233650
 C          4.9718326352        2.4545226669       -0.8137886680
 H          3.9748860261        2.0540405006       -1.0129290250
 H          5.1546643371        3.2383880361       -1.5520694088
 C          5.0010690991        3.0633465745        0.5951574423
 H          4.9310608705        4.1497285364        0.5079928432
 H          5.9534150349        2.8381403405        1.0766284624
 C          3.8551387164        2.6155171477        1.5044758155
 H          2.9024507873        2.7547798128        0.9865223341
 H          3.8465327514        3.2648767128        2.3841554761
 C          3.9272164784        1.1670729920        2.0046122470
 H          3.1735834765        1.0486993260        2.7885465802
 H          4.9093265563        0.9775572996        2.4420696391
 H          5.8663695267        0.9641225471       -2.0601241481
 H          7.0119039427        1.7812601776       -0.9891322184
 H          6.2706665914        0.5021785933        0.9220845782
 H          6.5376294154       -0.6317971574       -0.4155222556
 O          4.2073906844       -1.2412017366       -0.8733424780
 C          2.9349241644       -1.7745703454       -0.9671541123
 O          2.8021057154       -2.6146382262       -1.8791219646
 H         -0.3777183723        0.3748383127        0.6010452907
 C         -0.7866118841        0.0966458626       -0.3589304895
 C         -0.3783359502       -1.0893922929       -0.9525838874
 C         -0.9055644302       -1.4263721639       -2.1934524765
 C         -1.8169478638       -0.5957375717       -2.8229121369
 C         -2.2214695495        0.5855701988       -2.2276624063
 C         -1.6943035861        0.9328899595       -0.9906965003
 N         -2.1156286512        2.1261800922       -0.3656661665
 S         -3.7640730218        2.2180620019       -0.0683114040
 O         -4.4465757953        2.5748756982       -1.2868247925
 O         -3.9140795012        3.1396478765        1.0353559421
 C         -4.2126370536        0.5619790645        0.4194228848
 C         -4.8982015471       -0.2518297552       -0.4589526147
 C         -5.1628040378       -1.5609715704       -0.0900962752
 C         -4.7349089943       -2.0319395494        1.1411510151
 C         -4.0490886414       -1.2006700101        2.0134404177
 C         -3.7800263127        0.1082567983        1.6495942015
 H         -3.2508771659        0.7826659934        2.3040581789
 H         -3.7180731048       -1.5670345814        2.9721614086
 H         -4.9376101252       -3.0530314075        1.4237114620
 H         -5.6964842333       -2.2100694068       -0.7652947238
 H         -5.2122395124        0.1544667981       -1.4062543972
 H         -1.6022122565        2.3202779590        0.4830166093
 H         -2.9359034774        1.2426279975       -2.6970286301
 H         -2.2171300941       -0.8713844024       -3.7866026285
 H         -0.5878899477       -2.3428469368       -2.6690928418
 C          0.5896587684       -2.0070347889       -0.2448507658
 H          0.7656127453       -2.8729886775       -0.8963115430
 C         -0.0096742426       -2.5022345093        1.0585493576
 C         -1.0820496456       -3.5466605565        1.0107157524
 C          0.2840394081       -3.8968300237        1.5184179612
 H          0.4156461788       -4.0732183045        2.5754501715
 H          0.9218697165       -4.5053870519        0.8936035946
 H         -1.3729078876       -3.9194094767        0.0405115300
 H         -1.8935388149       -3.4819579555        1.7183120454
 H         -0.0854410088       -1.7347200294        1.8168519954
 O          1.3953097183        0.0225160486        1.7869699825
