  62
        -98.93416562
 C         -0.4984050700       -1.6831855804        0.2625953307
 C         -1.3657127997       -0.9132457499        1.0741738306
 C         -2.5421727297       -0.3139547700        0.4170837305
 C         -2.6797336199       -0.4451042105       -0.9141240594
 C         -3.7908199800        0.0434444194       -1.8094802094
 C         -4.3280160397        1.4577716296       -1.5473706099
 C         -5.7292031496        1.4778215700       -0.9333187497
 H         -6.2052418095        2.4297590500       -1.1789674400
 H         -6.3244963998        0.6884227700       -1.3969713893
 C         -5.7759836594        1.3175009707        0.5853023504
 H         -5.4001772792        2.2273045508        1.0581148499
 H         -6.8242514094        1.2113442610        0.8744466706
 C         -4.9919823895        0.1260399508        1.1389044007
 H         -5.1270639098       -0.7473983395        0.5015469311
 H         -5.4102366194       -0.1259306588        2.1158216809
 C         -3.4939056994        0.4117262006        1.3280768104
 H         -3.3077376593        1.4856359205        1.2534917199
 H         -3.1878138293        0.1209051509        2.3376971404
 H         -3.6289560895        2.0014140697       -0.9160376803
 H         -4.3745344598        1.9771663792       -2.5056514701
 H         -3.3829386202       -0.0170898811       -2.8210246095
 H         -4.6098891401       -0.6793155605       -1.7627790290
 O         -1.7667309202       -1.1164447409       -1.6715389493
 C         -0.6681616802       -1.7560365309       -1.1201562492
 O          0.0536462096       -2.3268562714       -1.9576994191
 O         -1.1732215095       -0.7392138094        2.3080244205
 C          0.6993170700       -2.3400923703        0.9250565808
 C          1.9517733700       -1.9998563608        0.1578916605
 C          2.8060542997       -2.9399154412       -0.4013681393
 C          3.9240524597       -2.5313275717       -1.1078629096
 C          4.2184489899       -1.1892153318       -1.2600605502
 C          3.3686095401       -0.2396460114       -0.7032420205
 C          2.2496819902       -0.6520922310       -0.0011511201
 H          1.5869245604        0.0853333893        0.4286301297
 N          3.6115679103        1.1329755785       -0.8592731810
 S          3.2587371607        2.1866769690        0.3873216086
 O          4.0177011209        3.3795399188        0.0746601180
 O          3.5232281008        1.5926574595        1.6772901388
 C          1.5268435208        2.5603404893        0.2160455187
 C          1.0417804606        2.9039240988       -1.0301683214
 C         -0.2899706293        3.2653704790       -1.1519462413
 C         -1.1058766392        3.2851676296       -0.0310165112
 C         -0.6071872090        2.9276652400        1.2114121789
 C          0.7229136509        2.5617399498        1.3382459188
 H          1.1473466510        2.2685586702        2.2855863889
 H         -1.2422751689        2.9282054205        2.0829900990
 H         -2.1364492491        3.5903012797       -0.1266873211
 H         -0.6873040594        3.5346848787       -2.1173394413
 H          1.7079068405        2.8846415084       -1.8767306015
 H          4.4719775503        1.3690227481       -1.3311846013
 H          5.0905436198       -0.8745513422       -1.8129511605
 H          4.5771337695       -3.2705850320       -1.5465889394
 H          2.5854139195       -3.9903156711       -0.3066777788
 H          0.7700953403       -1.8473006999        1.9099447806
 C          0.5355163398       -3.8272567202        1.1980069114
 C         -0.8226742303       -4.4305916099        1.3926762219
 C         -0.0155127305       -4.7784837305        0.1798614319
 H          0.4146095693       -5.7676965806        0.1198443822
 H         -0.3121558306       -4.3724324008       -0.7739860282
 H         -0.9471881203       -5.1773841795        2.1625137922
 H         -1.6788578602       -3.7834942598        1.2682419618
 H          1.3241418198       -4.2072908001        1.8407228715
