  62
        -98.93238936
 C          2.4424523228        1.3655890390       -0.3246131209
 C          2.1002979773        0.0429066964       -0.6870277585
 C          3.0609052112       -1.0150964753       -0.3127336528
 C          4.1682572756       -0.6837965530        0.3744128367
 C          5.2814400202       -1.5749478762        0.8644708178
 C          4.8625892209       -2.8968733436        1.5264858625
 C          5.1907039656       -4.1297068420        0.6825893006
 H          6.1668721447       -3.9817648516        0.2161241630
 H          5.2735691840       -4.9943008804        1.3448962635
 C          4.1621024676       -4.4697296365       -0.3942618504
 H          4.5779492398       -5.2736601825       -1.0061299399
 H          3.2577086982       -4.8568405974        0.0803003652
 C          3.7668037876       -3.3100415804       -1.3107684522
 H          3.3838280372       -3.7362137952       -2.2404246986
 H          4.6401789622       -2.7132516802       -1.5705172362
 C          2.6696879825       -2.4081661864       -0.7255509937
 H          1.8794122545       -2.2625147283       -1.4686920114
 H          2.1902155415       -2.9032646679        0.1244742361
 H          3.8000352592       -2.8716820671        1.7649165384
 H          5.4022600053       -2.9819490865        2.4711187757
 H          5.8392200215       -0.9634410254        1.5773122901
 H          5.9583267257       -1.7760887980        0.0305223492
 O          4.4487763403        0.6062142121        0.7184266150
 C          3.6079125365        1.6502251707        0.3895451204
 O          3.9992993623        2.7682807638        0.7797190370
 O          1.0472860514       -0.2614026199       -1.3083957712
 C          1.5290608485        2.5413444224       -0.6372964226
 C          0.2959927260        2.4082979997        0.2231511158
 C          0.3378227065        2.8525037716        1.5418154793
 C         -0.7459336658        2.6733725305        2.3809857461
 C         -1.8903246022        2.0403805336        1.9270203884
 C         -1.9365974057        1.5849180870        0.6168661184
 C         -0.8537988165        1.7824077600       -0.2307405673
 H         -0.8952530508        1.4077846506       -1.2409550963
 N         -3.0920534939        0.9323195604        0.1413595176
 S         -3.7403815441       -0.2694586193        1.1376236036
 O         -4.5427956609        0.3677726232        2.1527173058
 O         -2.6948912032       -1.1439933531        1.6216834012
 C         -4.7948801643       -1.1286801801       -0.0133361872
 C         -6.1003201614       -0.7054851863       -0.1742552794
 C         -6.9062892232       -1.3566577996       -1.0946050596
 C         -6.3959934531       -2.4128392536       -1.8345542141
 C         -5.0834918697       -2.8264793701       -1.6614837712
 C         -4.2714415354       -2.1787254088       -0.7438887394
 H         -3.2472882851       -2.4713698975       -0.5724043901
 H         -4.6893467109       -3.6487501905       -2.2368143175
 H         -7.0247483011       -2.9191412451       -2.5498364673
 H         -7.9274378499       -1.0394302770       -1.2314221527
 H         -6.4538624917        0.1143382957        0.4287487836
 H         -2.9424884231        0.5632269487       -0.7889286465
 H         -2.7354765622        1.8752366556        2.5757372619
 H         -0.6993489351        3.0233165209        3.4015895081
 H          1.2408348423        3.3239528883        1.9052351924
 H          2.0741797279        3.4371855361       -0.3120474972
 C          1.2367968604        2.6604002117       -2.1182202353
 C          0.6405669025        3.9301284644       -2.6447676872
 C          2.0657404333        3.5862116152       -2.9545516168
 H          2.3175215357        3.2842203604       -3.9601273859
 H          2.8469167126        4.1436073899       -2.4584895834
 H         -0.0875633409        3.8686312996       -3.4388906330
 H          0.4526903598        4.7218967113       -1.9353818564
 H          0.9304780556        1.7275141225       -2.5737511902
