  62
        -98.93982784
 C          2.5763493854       -0.0678984687        0.4814863943
 C          2.2288949836       -0.7123736157       -0.7289266860
 C          1.8142870405       -2.1217654384       -0.6213853253
 C          1.7291547886       -2.6937691101        0.5918460696
 C          1.3433637192       -4.1097055325        0.9414586764
 C          0.1637320703       -4.7327234656        0.1840003258
 C         -0.9471303614       -3.7524341816       -0.2223767582
 H         -1.9092638092       -4.1497902427        0.1080128655
 H         -0.8127173561       -2.7870886035        0.2718294124
 C         -1.0219510094       -3.5377588373       -1.7357447509
 H         -2.0111547228       -3.1457261769       -1.9839886899
 H         -0.9112776667       -4.5041969448       -2.2341439644
 C         -0.0017747157       -2.5532587524       -2.3056961658
 H         -0.0790295661       -2.5823777839       -3.3958675021
 H         -0.2662245252       -1.5396606860       -1.9937509055
 C          1.4619117404       -2.8056184644       -1.9113033936
 H          1.6812006361       -3.8706679445       -1.8711106166
 H          2.0953614989       -2.3468871240       -2.6759022826
 H          0.5313445670       -5.2368423349       -0.7089128553
 H         -0.2535106872       -5.5047755278        0.8328082613
 H          1.1181999651       -4.0830463403        2.0104464032
 H          2.2259381581       -4.7437185854        0.8135517697
 O          2.0435806256       -2.0236605445        1.7374901642
 C          2.4660631743       -0.7076279026        1.7136989254
 O          2.7161796220       -0.2252950226        2.8390818270
 O          2.2812340664       -0.1463730485       -1.8527940533
 C          2.9837939287        1.3940894691        0.4802667051
 C          1.8451957450        2.2400042589       -0.0400330237
 C          2.0249445660        3.3441479940       -0.8636947693
 C          0.9328725836        4.0712105098       -1.3058066283
 C         -0.3537061981        3.7070815939       -0.9529424763
 C         -0.5428898893        2.6113251509       -0.1189855366
 C          0.5537404606        1.9045167924        0.3441382370
 H          0.3943613195        1.0565407831        0.9942979660
 N         -1.8337613305        2.2017082395        0.2771363772
 S         -2.1457496887        0.5422546067        0.1245693320
 O         -1.5646544709       -0.1612987401        1.2401453557
 O         -1.7587108000        0.1018998389       -1.1955998318
 C         -3.9228823460        0.5372381382        0.2739706283
 C         -4.4823083453        0.5906762003        1.5362620613
 C         -5.8625053714        0.6260758697        1.6564195457
 C         -6.6556687291        0.6082669243        0.5186133805
 C         -6.0799085907        0.5511007909       -0.7416335570
 C         -4.7000044715        0.5169305585       -0.8686464017
 H         -4.2073864445        0.4632492367       -1.8263126560
 H         -6.6988268692        0.5331512804       -1.6241008772
 H         -7.7294668373        0.6360797661        0.6151771575
 H         -6.3132052350        0.6669788182        2.6348724858
 H         -3.8250522087        0.5932874210        2.3902783316
 H         -2.5553789324        2.7248120188       -0.2035858464
 H         -1.2042923568        4.2625282106       -1.3186356235
 H          1.0855874496        4.9246793841       -1.9489534359
 H          3.0191911724        3.6296735149       -1.1664887444
 H          3.1468749481        1.6617567553        1.5356426226
 C          4.2788333560        1.5925814161       -0.2795671085
 C          5.2335942406        2.6754131097        0.1223018029
 C          5.5702889807        1.2410027083        0.3939365424
 H          6.3456327979        0.7701784318       -0.1913189994
 H          5.5142154363        0.8839722842        1.4123512553
 H          5.7837695677        3.1903507317       -0.6507648403
 H          4.9606309601        3.2971252927        0.9616557633
 H          4.1817093328        1.3552921803       -1.3325890464
