  62
        -98.94593574
 C          2.1126704503        1.4921548762        0.0083409419
 C          1.8348102305        0.3757811248       -0.8169240155
 C          2.8972534825       -0.6380999557       -0.8941052916
 C          4.0485800963       -0.4418929907       -0.2262080742
 C          5.1913947978       -1.4137738255       -0.1823548781
 C          5.0610703540       -2.3726173336        1.0094801453
 C          3.6812683023       -3.0187184011        1.1350571210
 H          2.9455900207       -2.2461299716        1.3705877709
 H          3.7179739855       -3.6980237727        1.9894372391
 C          3.2249176451       -3.7886982580       -0.1118942080
 H          2.8005450829       -4.7439016798        0.2039114953
 H          4.0846334405       -4.0108731597       -0.7451626161
 C          2.1537161305       -3.0753131590       -0.9389356416
 H          1.3383297750       -2.7584725474       -0.2840960159
 H          1.7463078135       -3.7934823615       -1.6555416372
 C          2.6308619236       -1.8543709800       -1.7355673869
 H          1.8309014297       -1.5691100717       -2.4250040969
 H          3.5117142738       -2.1178451010       -2.3245655596
 H          5.2625877034       -1.8140667588        1.9265828310
 H          5.8218925428       -3.1492966217        0.9117672327
 H          5.2199183874       -1.9763178264       -1.1134886269
 H          6.1195768749       -0.8484756606       -0.0822006169
 O          4.2877424957        0.6579709939        0.5334598265
 C          3.3227789180        1.6394091259        0.6864235136
 O          3.6558784460        2.5784476828        1.4375957376
 H         -1.4697203696        2.4692378232       -0.9030295239
 C         -1.3972205306        1.9801729345        0.0552949944
 C         -0.1922372536        1.9646052438        0.7369329187
 C         -0.1321932268        1.3152491887        1.9678901932
 C         -1.2495137134        0.7021876025        2.5006194349
 C         -2.4509326039        0.7121476190        1.8124875427
 C         -2.5180687533        1.3485947179        0.5811009789
 N         -3.7253512097        1.3451900483       -0.1353404506
 S         -4.6262739631       -0.0629225378       -0.1664835153
 O         -5.3700001154       -0.0041473581       -1.4059255717
 O         -5.4228929425       -0.1519824409        1.0330838759
 C         -3.4540109717       -1.4084990861       -0.2065185153
 C         -2.4575287833       -1.3950986997       -1.1616919827
 C         -1.5500847276       -2.4404901022       -1.1977671180
 C         -1.6548122933       -3.4788609438       -0.2853615284
 C         -2.6640206879       -3.4807195906        0.6650816257
 C         -3.5725938173       -2.4356501241        0.7080108799
 H         -4.3681809165       -2.3933115466        1.4343662266
 H         -2.7430155338       -4.2895870806        1.3736390429
 H         -0.9438170427       -4.2896658299       -0.3157338170
 H         -0.7576304522       -2.4246094408       -1.9280839077
 H         -2.3827442067       -0.5764865785       -1.8586539091
 H         -3.6611241665        1.7602711486       -1.0531561814
 H         -3.3332947040        0.2401583315        2.2132542874
 H         -1.1870212240        0.2073142571        3.4579328540
 H          0.8102217270        1.2959321521        2.4988575478
 C          1.0694783521        2.5822169296        0.1862559890
 H          1.4728549556        3.2703589113        0.9422780823
 C          0.8751438145        3.3427555312       -1.1084695836
 C          0.3158549389        4.7328099264       -1.0842865480
 C          1.7636161818        4.5122242322       -1.4025280444
 H          2.0983647430        4.6631971524       -2.4179378303
 H          2.5003230367        4.7760229655       -0.6577118037
 H          0.0664693153        5.1538410135       -0.1220536275
 H         -0.3421821547        5.0406104438       -1.8830565450
 H          0.6130156497        2.6989567065       -1.9401379507
 O          0.7625973749        0.2310075515       -1.4585320058
