  62
        -98.93340793
 C         -2.4561026118       -1.1159597393        0.4754939720
 C         -2.4041182751        0.1752135468       -0.0996112146
 C         -3.5816607513        1.0467487734        0.1130076748
 C         -4.6078541141        0.5907914359        0.8534741583
 C         -5.9136097519        1.2721121971        1.1664510111
 C         -6.8870850493        1.2624417025       -0.0228824280
 C         -6.2597605387        1.6163928552       -1.3685446773
 H         -5.4518803396        0.9145087564       -1.5833173736
 H         -7.0235768097        1.4757310804       -2.1379659397
 C         -5.7355674819        3.0456430152       -1.4858965814
 H         -5.4091930172        3.1867678091       -2.5194925409
 H         -6.5544318849        3.7438653780       -1.2988149104
 C         -4.5669091576        3.4079971664       -0.5665039537
 H         -4.1430476391        4.3468421898       -0.9347631186
 H         -4.9086266436        3.6014290065        0.4467472890
 C         -3.4282245437        2.3929957750       -0.5532807791
 H         -3.1191415432        2.1882082171       -1.5847415955
 H         -2.5536031101        2.8547841485       -0.0793113119
 H         -7.7031977872        1.9536408707        0.1942536284
 H         -7.3092017832        0.2578204824       -0.1061587612
 H         -6.3663970218        0.7161605156        1.9905039486
 H         -5.7335977629        2.2859541651        1.5112157467
 O         -4.5972967392       -0.6508004870        1.4194646341
 C         -3.5391535572       -1.5210156560        1.2593715841
 O         -3.6714651747       -2.6072324989        1.8589403225
 H          0.7612034478       -1.5300438914       -1.3839179811
 C          0.9581829350       -1.2227031776       -0.3685080988
 C          0.0024103343       -1.4316419077        0.6121801816
 C          0.2732577105       -0.9995708866        1.9075361703
 C          1.4658109143       -0.3702699230        2.2082357234
 C          2.4142990400       -0.1556362889        1.2235227997
 C          2.1544689317       -0.5818585340       -0.0712126030
 N          3.1036816706       -0.3478731532       -1.0790925844
 S          4.7059153425       -0.7457155800       -0.7973150746
 O          5.2804416793       -0.9554227148       -2.1086136121
 O          4.8225144495       -1.8426027016        0.1359253511
 C          5.4016691069        0.7334082310       -0.0912413038
 C          5.2710719945        1.9147752590       -0.7945725811
 C          5.8152061761        3.0731380092       -0.2634585834
 C          6.4791028061        3.0306408242        0.9536300612
 C          6.6047591623        1.8360325583        1.6458647791
 C          6.0619796185        0.6737701162        1.1202318081
 H          6.1304527175       -0.2764330779        1.6257292194
 H          7.1214248100        1.8051271478        2.5917174902
 H          6.9012299496        3.9340514693        1.3647387338
 H          5.7191686361        4.0041287290       -0.7986667708
 H          4.7499217112        1.9059271745       -1.7373619251
 H          2.8056450023       -0.6337298851       -1.9999593237
 H          3.3450296601        0.3387794431        1.4492425088
 H          1.6592413489       -0.0399524569        3.2176834591
 H         -0.4710121273       -1.1604897496        2.6761992660
 C         -1.3160718186       -2.1109757111        0.3372938447
 H         -1.4862888217       -2.8450533905        1.1421598442
 C         -1.3262614463       -2.8957797408       -0.9663080715
 C         -2.6204300048       -3.2683938644       -1.6242319699
 C         -1.7030401746       -2.2829165675       -2.2803399382
 H         -1.1649411801       -2.5966144501       -3.1635327503
 H         -1.9817979346       -1.2413291322       -2.2866550389
 H         -2.7132176036       -4.2542541212       -2.0544053768
 H         -3.5313433468       -2.9010810560       -1.1740913600
 H         -0.5429076260       -3.6482907566       -0.9867766164
 O         -1.4335889081        0.6042705847       -0.7754807877
