  62
        -98.93031329
 C          2.1747207004        0.7532591136       -0.1184405953
 C          3.4954080495        1.2531359039       -0.2504612143
 C          4.5754832973        0.3993171406        0.2655570904
 C          4.2582290195       -0.7620061903        0.8653628512
 C          5.2405223144       -1.7819873173        1.3671629827
 C          5.8088050953       -2.5906043679        0.1833354597
 C          7.3044545198       -2.3866746116       -0.0594168731
 H          7.8647225037       -2.9392657395        0.6976666173
 H          7.5404090726       -2.8267257004       -1.0306608536
 C          7.7931095840       -0.9351028468       -0.0371859643
 H          7.9071533866       -0.6020464867        0.9953953977
 H          8.7920589913       -0.9297689047       -0.4782970821
 C          6.9192546248        0.0794024419       -0.7861550249
 H          6.3316575372       -0.4160485748       -1.5595172894
 H          7.5786222778        0.7868157085       -1.2930335353
 C          5.9829384167        0.9069370891        0.1143356022
 H          6.4365024734        1.0244340049        1.1022846644
 H          5.8739502861        1.9058736997       -0.3182106740
 H          5.2518119118       -2.3184334896       -0.7159060314
 H          5.6310542720       -3.6540423007        0.3506276133
 H          4.7046136243       -2.4378401217        2.0535344727
 H          6.0408164156       -1.2854516835        1.9113378762
 O          2.9770176231       -1.1832608897        1.0227807059
 C          1.9014303390       -0.4451832186        0.5415365553
 O          0.7942827546       -0.9634633833        0.7780493803
 O          3.7579608330        2.3692080421       -0.7730703768
 C          1.0456304872        1.6021017344       -0.6745508059
 C         -0.0921136650        1.6824881593        0.3115229396
 C          0.1378511517        2.2812747169        1.5475579358
 C         -0.8660724268        2.3552828760        2.4927551940
 C         -2.1207868656        1.8382299061        2.2236241498
 C         -2.3654990478        1.2506618091        0.9878701569
 C         -1.3550457361        1.1811778790        0.0391796711
 H         -1.5609235519        0.6955066380       -0.8989666710
 N         -3.6522977063        0.7719922996        0.6828440524
 S         -3.8881292881       -0.5350910640       -0.3551900260
 O         -3.2205240907       -1.7191560866        0.1361510034
 O         -3.5756035786       -0.1286948701       -1.7022077785
 C         -5.6549964841       -0.7203157199       -0.1845455013
 C         -6.1577514282       -1.6808340508        0.6724476744
 C         -7.5312114915       -1.7987261189        0.8175345935
 C         -8.3745039930       -0.9567640607        0.1084390448
 C         -7.8555431178        0.0019199737       -0.7491938629
 C         -6.4833669774        0.1240698175       -0.8992512702
 H         -6.0348184423        0.8472299876       -1.5600172476
 H         -8.5145579455        0.6526561442       -1.3009472671
 H         -9.4428754376       -1.0506135553        0.2226893191
 H         -7.9368907526       -2.5455963502        1.4808388173
 H         -5.4635285489       -2.3191574225        1.1954389679
 H         -4.2285398298        0.6694921149        1.5075399332
 H         -2.9037092182        1.8869509933        2.9653062728
 H         -0.6702368956        2.8126710160        3.4511255248
 H          1.1232011754        2.6732251546        1.7620161910
 H          1.4829282590        2.6104599640       -0.7713834229
 C          0.5953866092        1.1892912071       -2.0678845864
 C          1.5381734112        0.5355230116       -3.0317371429
 C          0.3987929947       -0.2454265572       -2.4521705880
 H         -0.4403097113       -0.4939918232       -3.0864639371
 H          0.6088264918       -0.9964546481       -1.7058289098
 H          1.4903785405        0.8232944931       -4.0711085975
 H          2.5366027932        0.3143995688       -2.6834517921
 H         -0.1067402879        1.9006475647       -2.4930775729
