  62
        -98.93291409
 C          2.2246288712        1.0716902174        0.2755703770
 C          2.1295283580        0.1024855395       -0.7514239332
 C          2.2015449705       -1.3158418209       -0.3342604710
 C          2.4009668210       -1.6094444794        0.9624050073
 C          2.5555690282       -2.9661810434        1.5964845874
 C          3.9279826736       -3.6024578881        1.3159756852
 C          4.4327779347       -3.4479069314       -0.1165719239
 H          4.4646429298       -2.3871971160       -0.3721414308
 H          5.4595590657       -3.8215542034       -0.1489814736
 C          3.6292881501       -4.1992857372       -1.1750572756
 H          4.1333945138       -4.0505603289       -2.1332491711
 H          3.6507535000       -5.2678016872       -0.9493138057
 C          2.1698692168       -3.7689821509       -1.3342720303
 H          1.5568103376       -4.1553079018       -0.5242686899
 H          1.7918043107       -4.2258637240       -2.2537276949
 C          1.9573159408       -2.2653944931       -1.4820144935
 H          0.9156525372       -2.0862433017       -1.7825814310
 H          2.5672971089       -1.8960521849       -2.3145498677
 H          3.8763781747       -4.6613699657        1.5741090883
 H          4.6576910260       -3.1282220636        1.9765290345
 H          2.4516166635       -2.8208526464        2.6740806973
 H          1.7473460493       -3.6162066575        1.2735274546
 O          2.5490184010       -0.6396053490        1.9109145815
 C          2.4070919683        0.6977557412        1.6077380250
 O          2.4882925877        1.4604308593        2.5942934118
 O          1.9963193228        0.3768868022       -1.9722297877
 C          1.9948186894        2.5586144423        0.0563854720
 C          0.5390676991        2.8651837654        0.3116550828
 C          0.1488441504        3.9833249242        1.0393431960
 C         -1.1895908038        4.2200657987        1.3003431740
 C         -2.1597637687        3.3328268676        0.8700953993
 C         -1.7784115873        2.2107650975        0.1432377552
 C         -0.4411050190        2.0002803834       -0.1523299835
 H         -0.1687592639        1.1282816918       -0.7271290538
 N         -2.7191872549        1.2673778955       -0.3034688956
 S         -2.2602303708       -0.3612290293       -0.1981172086
 O         -1.5035934785       -0.5835968595        1.0136318444
 O         -1.6330672577       -0.7537496092       -1.4342195876
 C         -3.8659446768       -1.1305680649       -0.0799328446
 C         -4.5820165369       -1.3542393079       -1.2409368254
 C         -5.8485078139       -1.9095833949       -1.1502878321
 C         -6.3754484041       -2.2289775134        0.0924305596
 C         -5.6443042632       -2.0005815509        1.2485440588
 C         -4.3775134279       -1.4438573996        1.1650975850
 H         -3.7686770404       -1.2545027023        2.0348457155
 H         -6.0547078831       -2.2528338789        2.2129798155
 H         -7.3612809526       -2.6609432535        0.1605413093
 H         -6.4184333441       -2.0909763786       -2.0471297243
 H         -4.1262871532       -1.0970351241       -2.1829079189
 H         -3.6401364252        1.4162550943        0.0873257324
 H         -3.2009081936        3.5022208588        1.0990044522
 H         -1.4788608222        5.0924981045        1.8662896534
 H          0.9036127479        4.6546811725        1.4218947273
 H          2.5795406222        3.0692881938        0.8392642273
 C          2.4821700578        3.0759920201       -1.2881104641
 C          1.5579986308        3.4102934159       -2.4160962183
 C          2.2521404966        4.5083268777       -1.6713665850
 H          3.0500474967        5.0429726387       -2.1638277547
 H          1.6554494309        5.1140279863       -1.0066359169
 H          1.8818498430        3.1657094003       -3.4159254530
 H          0.4991724397        3.2711386489       -2.2600971724
 H          3.4388746320        2.6449901677       -1.5629919042
