  62
        -98.95211322
 C         -2.3638529534       -0.2965776948        0.0402366389
 C         -1.5121245886        0.2570086956       -0.9434771175
 C         -1.4823633646        1.7229631503       -1.0204489247
 C         -2.2436843745        2.4404885045       -0.1746529511
 C         -2.3248772940        3.9393773115       -0.1521088895
 C         -1.3191402055        4.5563652482        0.8278869896
 C          0.1089726817        4.0357634688        0.6650315285
 H          0.7374286235        4.5883186754        1.3679605552
 H          0.1516563931        2.9861807390        0.9655493674
 C          0.6828671241        4.1769250935       -0.7516229489
 H          0.1118714694        4.9170380948       -1.3144255868
 H          1.7080117999        4.5455576437       -0.6740704966
 C          0.7406646502        2.8644024969       -1.5356314047
 H          1.1848343526        2.0932463501       -0.9010954472
 H          1.4008650328        3.0071394568       -2.3956336854
 C         -0.6012881247        2.3440797388       -2.0675038975
 H         -0.3892415954        1.5490100933       -2.7883472368
 H         -1.1275259371        3.1478554115       -2.5876009201
 H         -1.6468554482        4.3378387625        1.8470172762
 H         -1.3303358418        5.6400675362        0.6925692975
 H         -2.1451753617        4.3183574331       -1.1566335599
 H         -3.3340355164        4.2196145493        0.1564214087
 O         -3.0321284736        1.8742311852        0.7755004765
 C         -3.0975891013        0.4979709090        0.9186751436
 O         -3.8403139787        0.1092453143        1.8448283756
 O         -0.8215990458       -0.4428350576       -1.7312315582
 C         -2.4722655318       -1.8047600971        0.1789961727
 C         -1.0995995849       -2.4168588910        0.3162545470
 C         -0.7182530713       -3.5903486072       -0.3228734869
 C          0.5644763569       -4.0878690933       -0.1701002248
 C          1.4976767538       -3.4173349620        0.5992385007
 C          1.1219928996       -2.2486105534        1.2512263403
 C         -0.1752639985       -1.7781152015        1.1326388832
 H         -0.4544076173       -0.8713052528        1.6494025478
 N          2.0383695100       -1.5138674374        2.0325938985
 S          2.3852410443        0.0500725472        1.5368027437
 O          3.3649190399        0.5342395252        2.4860628275
 O          1.1695752355        0.8127671471        1.4306756433
 C          3.1646430056       -0.1472908444       -0.0564482462
 C          2.3943993970       -0.4495287290       -1.1617741926
 C          3.0301115181       -0.6557924567       -2.3772215272
 C          4.4098276260       -0.5611681582       -2.4674432906
 C          5.1680836355       -0.2588857503       -1.3460970765
 C          4.5417858692       -0.0541876923       -0.1278754654
 H          5.0873385856        0.1863883812        0.7703799448
 H          6.2412218526       -0.1833792219       -1.4168942903
 H          4.8957024288       -0.7230165093       -3.4167851851
 H          2.4320014866       -0.8897669644       -3.2432405548
 H          1.3199417851       -0.5137550598       -1.0803989061
 H          2.9063165343       -2.0027145364        2.2061621961
 H          2.5066454444       -3.7894592007        0.6955642370
 H          0.8465492064       -4.9999754685       -0.6734339344
 H         -1.4245358871       -4.1128295906       -0.9471033392
 H         -3.0284205903       -1.9876120226        1.1105710399
 C         -3.2654091002       -2.3707760024       -0.9824363966
 C         -4.1141027006       -3.5923348531       -0.8000487966
 C         -4.7584835142       -2.2494581958       -0.9629242965
 H         -5.2708305541       -2.0287293715       -1.8872849541
 H         -5.2034134784       -1.7826642281       -0.0958689223
 H         -4.1892182402       -4.2954736385       -1.6158529358
 H         -4.1345089724       -4.0462371305        0.1792264095
 H         -2.7649622240       -2.2296750857       -1.9337715818
