  62
        -98.94298579
 C         -2.6778417963       -1.1982683653        0.1260278549
 C         -2.7027181017       -0.1970905282       -0.8742705959
 C         -3.9058576030        0.6472718314       -0.9010633314
 C         -4.8954039748        0.4147539605       -0.0193864264
 C         -6.1478050645        1.2330718196        0.0995985527
 C         -5.9700998656        2.3746853320        1.1105360673
 C         -4.6988835166        3.1967001185        0.8973012663
 H         -4.6957474601        3.9904111819        1.6475377839
 H         -3.8285686462        2.5661412194        1.0935020755
 C         -4.5695339976        3.8149720370       -0.5017683218
 H         -4.2457709325        4.8525978064       -0.3970562947
 H         -5.5433905183        3.8276697881       -0.9925617714
 C         -3.5530973078        3.1210139712       -1.4105333950
 H         -3.3826635468        3.7609775552       -2.2803455045
 H         -2.5993834929        3.0208840605       -0.8859596334
 C         -3.9612364735        1.7379267052       -1.9333723560
 H         -4.9537169525        1.7925958010       -2.3852331516
 H         -3.2448058763        1.4515833039       -2.7088645464
 H         -5.9357890800        1.9454752061        2.1146292018
 H         -6.8425379026        3.0278411921        1.0503045419
 H         -6.4070800806        1.6358130563       -0.8775004899
 H         -6.9539570778        0.5808152972        0.4396002301
 O         -4.8448870604       -0.5744472372        0.9096930278
 C         -3.7334077510       -1.3939551643        1.0158977589
 O         -3.8033641135       -2.2438592892        1.9271010585
 H          0.9605088581       -2.1863177423       -1.0615164800
 C          0.9299730681       -1.4510487977       -0.2725625972
 C         -0.2247470358       -1.2849711819        0.4742754511
 C         -0.2248193491       -0.3346520313        1.4925041673
 C          0.8925190665        0.4386735000        1.7387271752
 C          2.0379146733        0.2825387903        0.9769593269
 C          2.0551690129       -0.6709893842       -0.0303203296
 N          3.2087707405       -0.8318703045       -0.8124544658
 S          4.7085631044       -0.8984726657       -0.0688001034
 O          5.5552033253       -1.6151978754       -0.9973698995
 O          4.6147696601       -1.4435371455        1.2655752941
 C          5.2332126296        0.8016449930       -0.0008107862
 C          5.6298769991        1.3521952174        1.2020382832
 C          6.0455471856        2.6743930093        1.2295870579
 C          6.0583138888        3.4181074203        0.0596402495
 C          5.6597576184        2.8493661280       -1.1409799502
 C          5.2440269699        1.5280192538       -1.1753575274
 H          4.9292154446        1.0501046822       -2.0879996025
 H          5.6705858817        3.4311105901       -2.0486465732
 H          6.3809360834        4.4470627190        0.0833754024
 H          6.3562822080        3.1181731085        2.1618096685
 H          5.5985960627        0.7376950892        2.0878314563
 H          3.1237349278       -1.5269135872       -1.5393557234
 H          2.9114645166        0.8860317303        1.1612292664
 H          0.8729477156        1.1739400965        2.5290770283
 H         -1.1197743597       -0.2108831035        2.0879743648
 C         -1.4698434937       -2.1089534398        0.2513251182
 H         -1.6385040971       -2.7167877462        1.1525111979
 C         -1.3901950358       -3.0313194721       -0.9472868194
 C         -0.7361595849       -4.3740980754       -0.8248191939
 C         -2.2255963549       -4.2746124653       -0.9576408148
 H         -2.6832160373       -4.5812201720       -1.8862226367
 H         -2.8337620373       -4.4695360901       -0.0862095743
 H         -0.3297119491       -4.6469738005        0.1376154026
 H         -0.1730298532       -4.7545205511       -1.6641236122
 H         -1.2865075013       -2.4920966006       -1.8820951372
 O         -1.7715864399       -0.0169498631       -1.7015379167
