  62
        -98.94467230
 C         -1.6541204239       -1.1161102312       -0.5735363237
 C         -1.5751001034        0.2037310427       -0.0647444317
 C         -2.7618454706        0.6805518273        0.6596311487
 C         -3.8245921557       -0.1267012960        0.8212954122
 C         -5.0963964982        0.2135522970        1.5498775607
 C         -6.1122892171        0.9930149263        0.7032312315
 C         -5.7491236206        2.4529620755        0.4281707407
 H         -6.6416222538        2.9331931733        0.0220734731
 H         -5.5117422243        2.9503504352        1.3691415629
 C         -4.5925885202        2.6430283991       -0.5631429026
 H         -4.8595825839        3.4130477326       -1.2903475551
 H         -4.4347846222        1.7166300690       -1.1199092671
 C         -3.2704677947        3.0645963988        0.0784975615
 H         -2.5134250058        3.1305324710       -0.7066826006
 H         -3.3786778761        4.0548421594        0.5266982520
 C         -2.7563992944        2.0965373951        1.1519116454
 H         -1.7230323751        2.3598976959        1.3932878296
 H         -3.3558773474        2.1860057870        2.0578923781
 H         -6.2527027429        0.4676929649       -0.2442150969
 H         -7.0643550475        0.9729762050        1.2386521348
 H         -4.8611818979        0.7793254102        2.4520375975
 H         -5.5492365705       -0.7358705387        1.8438346627
 O         -3.8549882318       -1.3960985776        0.3350790285
 C         -2.7824864552       -1.9154231022       -0.3698903691
 O         -2.9537945646       -3.0868646799       -0.7645378425
 O         -0.5850107618        0.9650992114       -0.2080650575
 C         -0.5023125864       -1.7684919659       -1.3254380563
 C          0.5332641975       -2.2071903952       -0.3166689641
 C          0.4102935163       -3.4595118261        0.2793688780
 C          1.3241944305       -3.8812517042        1.2261728473
 C          2.3706061831       -3.0584887084        1.6044750280
 C          2.4968340798       -1.8018623637        1.0241656467
 C          1.5865167681       -1.3876771798        0.0609717655
 H          1.6872077782       -0.4082825213       -0.3723521477
 N          3.5589575199       -0.9553187874        1.3760562728
 S          3.2723202535        0.6771476427        1.6578138314
 O          4.3754656498        1.0802298923        2.5082865495
 O          1.9511209338        0.8970620511        2.1946079893
 C          3.4861868300        1.4416394803        0.0652043340
 C          2.4241858495        2.0508082582       -0.5716185835
 C          2.6390891426        2.6342045445       -1.8115948718
 C          3.9003037045        2.6020159243       -2.3854453855
 C          4.9569223640        1.9887744504       -1.7284024957
 C          4.7506031845        1.4030940740       -0.4904528999
 H          5.5440920772        0.9245613464        0.0589480331
 H          5.9367432565        1.9653305295       -2.1775914713
 H          4.0590202919        3.0569826103       -3.3506379205
 H          1.8141850160        3.1059899009       -2.3219678421
 H          1.4489919955        2.0374349991       -0.1098415176
 H          4.1774530524       -1.3347865550        2.0787191083
 H          3.0835240910       -3.3839473458        2.3473145275
 H          1.2194930123       -4.8562409243        1.6781528256
 H         -0.4206805510       -4.0915100505       -0.0014896818
 H         -0.9235651796       -2.6753597035       -1.7805776214
 C          0.0629488823       -0.8946654655       -2.4254355376
 C          0.9604985707       -1.5144140450       -3.4525896624
 C         -0.4228711397       -1.0792498065       -3.8302954536
 H         -0.5379643482       -0.2053052206       -4.4536410555
 H         -1.1679472627       -1.8415544500       -4.0073308026
 H          1.7989014089       -0.9412143735       -3.8169941025
 H          1.1528241144       -2.5736320402       -3.3708022776
 H          0.2809466230        0.1164654320       -2.1092585458
