  62
        -98.94311507
 C         -2.0614907740       -1.3749003822        0.3340120570
 C         -2.0622868029       -0.2346851530        1.1802535624
 C         -3.0506882180        0.8031937471        0.8747010882
 C         -3.8999496269        0.6285080502       -0.1539801020
 C         -4.9966398449        1.5714269712       -0.5690404951
 C         -4.5288004018        2.7143976899       -1.4800409857
 C         -3.6973333453        3.7955440042       -0.7889281609
 H         -3.6241133742        4.6351580402       -1.4830507051
 H         -4.2281523382        4.1503067159        0.0950498699
 C         -2.2803745747        3.3507228146       -0.3997430250
 H         -2.0204792754        2.4416232312       -0.9468196520
 H         -1.5664739560        4.1206751402       -0.6990304965
 C         -2.0802521162        3.0998321287        1.0950091844
 H         -2.2015505884        4.0361166037        1.6441370436
 H         -1.0580702199        2.7445153447        1.2485371494
 C         -3.0350938072        2.0585485085        1.6932628753
 H         -4.0404706781        2.4709905373        1.7768540973
 H         -2.6781799394        1.7994858589        2.6930008228
 H         -5.4222421623        3.1836412529       -1.8985074476
 H         -3.9582797347        2.2889874638       -2.3089028095
 H         -5.7295134085        0.9737975922       -1.1155148296
 H         -5.4781087170        1.9850365510        0.3176685667
 O         -3.8653449444       -0.4735727243       -0.9457803366
 C         -2.9295512335       -1.4819128497       -0.7531757617
 O         -2.9981170428       -2.3870120816       -1.6070890150
 O         -1.2756846677       -0.1000883867        2.1557846316
 C         -1.0321798471       -2.4467403645        0.6522149285
 C          0.2216773345       -2.2068808844       -0.1540363985
 C          0.2392215157       -2.3657115243       -1.5355836543
 C          1.3953743946       -2.1147200215       -2.2522041638
 C          2.5529421324       -1.7054121702       -1.6123322557
 C          2.5420070684       -1.5318760829       -0.2343863071
 C          1.3792819867       -1.7843846935        0.4833222678
 H          1.3692233175       -1.6367224953        1.5547242615
 N          3.7132392076       -1.1335620676        0.4363143194
 S          4.5491839139        0.2304362007       -0.0483068536
 O          4.9997763249        0.0549839569       -1.4051575090
 O          5.5750032904        0.4160635542        0.9512622477
 C          3.3746555270        1.5694674293        0.0384096020
 C          3.3612864688        2.3681600617        1.1646762453
 C          2.4341342066        3.3938568033        1.2492802123
 C          1.5335779218        3.5951706677        0.2147289646
 C          1.5518254974        2.7770206405       -0.9044897651
 C          2.4809354634        1.7532270786       -0.9980647459
 H          2.5291591450        1.1050475747       -1.8579067744
 H          0.8452493633        2.9319829783       -1.7042980293
 H          0.8138718281        4.3957709608        0.2808919494
 H          2.4141181530        4.0303412077        2.1193394793
 H          4.0842564805        2.1806331244        1.9422949506
 H          3.6168816199       -1.1299605676        1.4417509919
 H          3.4589035306       -1.5069969998       -2.1618981184
 H          1.3979357742       -2.2426641445       -3.3243831155
 H         -0.6646116785       -2.6696226881       -2.0412389535
 H         -0.7793389691       -2.2930769651        1.7102289839
 C         -1.5371392340       -3.8650360748        0.4862580369
 C         -0.8199515535       -4.9731232673        1.1954169047
 C         -2.1849576349       -4.5521857052        1.6490216889
 H         -3.0201555203       -5.2089088968        1.4575987682
 H         -2.2676388829       -4.0012445335        2.5747158075
 H         -0.7141109794       -5.9220637243        0.6927447679
 H          0.0240082562       -4.7080194015        1.8144406402
 H         -1.9385774470       -4.0732237479       -0.4961038603
