  62
        -98.93988922
 C         -2.5017096023       -1.2700560691       -0.1617134868
 C         -2.2471003247       -0.0512150164       -0.8360715645
 C         -3.4052691252        0.8394289011       -1.0062771132
 C         -4.6085832930        0.4555121215       -0.5430172172
 C         -5.8511580532        1.2960242121       -0.5832308874
 C         -5.9908531343        2.1352012520        0.6950081002
 C         -4.7221291640        2.8980072446        1.0770851172
 H         -4.9480080803        3.4742830548        1.9768724292
 H         -3.9396137287        2.1828495202        1.3418941476
 C         -4.1949749802        3.8406069858       -0.0137923073
 H         -4.9810757038        4.0404874515       -0.7427696004
 H         -3.9277203647        4.7943945224        0.4458515301
 C         -2.9485982787        3.3340254696       -0.7422815135
 H         -2.1849800162        3.0464017122       -0.0142482185
 H         -2.5395269232        4.1582458714       -1.3330100568
 C         -3.1683855641        2.1531485870       -1.6962322877
 H         -3.9844672169        2.3815968571       -2.3848194320
 H         -2.2510267929        2.0240759281       -2.2787286411
 H         -6.8126083440        2.8399889405        0.5569602878
 H         -6.2492848417        1.4677004443        1.5201204611
 H         -5.8160852616        1.9454816090       -1.4555477299
 H         -6.7134083511        0.6328292823       -0.6681619042
 O         -4.8186783867       -0.7354803049        0.0736222152
 C         -3.7733673766       -1.6159262458        0.2968160144
 O         -4.0983751892       -2.6562435057        0.9038789106
 H          1.2804711290       -1.5218009725       -0.3315139689
 C          0.9225782021       -1.2588749699        0.6488544381
 C         -0.3744205785       -1.5583912644        1.0323617140
 C         -0.7997937022       -1.1901469506        2.3072444238
 C          0.0498420051       -0.5291014349        3.1715853415
 C          1.3376949062       -0.2106434462        2.7764997280
 C          1.7740955116       -0.5772297011        1.5094166056
 N          3.0950326593       -0.2965047292        1.1077361644
 S          3.3702122438        0.3477535627       -0.4319341641
 O          2.6405728772        1.5853821259       -0.5944094693
 O          3.1543916774       -0.6759189289       -1.4210166538
 C          5.1167709782        0.6901076557       -0.3008922838
 C          6.0075359395       -0.3583428318       -0.4310125801
 C          7.3640036397       -0.1045643991       -0.3052865307
 C          7.8052487930        1.1859418418       -0.0522753209
 C          6.8998153929        2.2284169018        0.0743524763
 C          5.5416035630        1.9807271440       -0.0493082570
 H          4.8012881519        2.7605004780        0.0322504422
 H          7.2454921965        3.2311746184        0.2676503600
 H          8.8616216685        1.3809891075        0.0439127286
 H          8.0714193564       -0.9118488515       -0.4056109640
 H          5.6185226102       -1.3420136695       -0.6356164119
 H          3.5753415406        0.2763455508        1.7907393178
 H          2.0002037023        0.3172017856        3.4462502451
 H         -0.2938060076       -0.2497241816        4.1563576123
 H         -1.8130820330       -1.4266128143        2.6044324330
 C         -1.3670353228       -2.2407230538        0.1220231409
 H         -1.8169254211       -3.0780490775        0.6747124967
 C         -0.7659133847       -2.7728336554       -1.1602310731
 C         -0.0198075605       -4.0719154416       -1.1457167128
 C         -1.3671029756       -3.9883611838       -1.7965322755
 H         -1.4249657556       -4.0298702229       -2.8738693094
 H         -2.2075805718       -4.4466195359       -1.2954836518
 H          0.0555872612       -4.5921490890       -0.2027532153
 H          0.8519536726       -4.1693901923       -1.7748318329
 H         -0.4105729214       -1.9894637007       -1.8199587333
 O         -1.1147832991        0.2836352856       -1.2743075606
