  62
        -98.93471277
 C          2.5515622590        0.5390389207        0.4010386311
 C          2.8451400689       -0.8412504892        0.2523337701
 C          4.1214569189       -1.1755193889       -0.3903952901
 C          4.9190047990       -0.1794955187       -0.8164961093
 C          6.2709662291       -0.3686831483       -1.4399526794
 C          7.3792729190       -0.3550090392       -0.3778016093
 C          7.1025214288       -1.2699009500        0.8152493000
 H          7.9632214788       -1.2015173106        1.4840797001
 H          6.2382279388       -0.8882960204        1.3636453802
 C          6.8578933387       -2.7394509298        0.4449851389
 H          7.2307703388       -2.9348837691       -0.5610452712
 H          7.4259800286       -3.3724512003        1.1299262785
 C          5.3964206187       -3.1820135297        0.5378074385
 H          4.9904333686       -2.9038402204        1.5136342087
 H          5.3664913186       -4.2727496396        0.4699310877
 C          4.4622448488       -2.6308273588       -0.5468242211
 H          4.8904109488       -2.8216458581       -1.5330565412
 H          3.5129620187       -3.1695643188       -0.4741719616
 H          8.3169574290       -0.6478538089       -0.8536356594
 H          7.4906088391        0.6666587005       -0.0072596985
 H          6.2852828590       -1.3113957879       -1.9835999101
 H          6.4429241792        0.4483924322       -2.1426327088
 O          4.5966785291        1.1300848513       -0.6815477184
 C          3.4108858991        1.5310028709       -0.0736804982
 O          3.2690275793        2.7659995209       -0.0306733373
 O          2.0714236188       -1.7533728595        0.6511322694
 C          1.2365101790        0.8760184903        1.0807014312
 C          0.1248958691        0.9838541711        0.0674536512
 C          0.2480474492        1.7960407220       -1.0553684682
 C         -0.7842116807        1.8841978027       -1.9717137282
 C         -1.9521072408        1.1634757627       -1.7938267788
 C         -2.0840000809        0.3463898119       -0.6791796694
 C         -1.0492340610        0.2675417311        0.2456827506
 H         -1.1498546411       -0.3785541295        1.1073448902
 N         -3.2556875010       -0.4100121181       -0.5040978100
 S         -4.7302183609        0.3535960422       -0.8193478795
 O         -4.9690329908        0.3186614433       -2.2401849796
 O         -4.7460463508        1.6633473118       -0.2075093786
 C         -5.8628504811       -0.7396576683        0.0144399296
 C         -6.2701294011       -0.4363688591        1.2998419398
 C         -7.1301054712       -1.3053422595        1.9527843291
 C         -7.5629080713       -2.4576060390        1.3138027482
 C         -7.1456334313       -2.7478661281        0.0231839280
 C         -6.2866616311       -1.8829831377       -0.6360211813
 H         -5.9434970311       -2.0630584470       -1.6414023214
 H         -7.4866823513       -3.6434338777       -0.4706057126
 H         -8.2322526214       -3.1321252693        1.8240169877
 H         -7.4588610013       -1.0807467302        2.9547186692
 H         -5.9158674811        0.4752408105        1.7540060905
 H         -3.2736031211       -0.8894786288        0.3856883196
 H         -2.7629188807        1.2269210033       -2.5015991588
 H         -0.6785118406        2.5217293333       -2.8370479277
 H          1.1575918593        2.3602041420       -1.1985143877
 H          1.0182080389       -0.0009253101        1.7111216406
 C          1.3192993991        2.0826749396        2.0045109221
 C          0.6706522092        3.3997636799        1.7169829530
 C          0.1126635991        2.5121918992        2.7861488723
 H          0.2381532690        2.7989331084        3.8191420326
 H         -0.8204726110        2.0112717194        2.5747401619
 H          1.2062901493        4.2918866796        2.0030592037
 H          0.1107792693        3.5072183106        0.8013421331
 H          2.2720833790        2.1262681692        2.5224638722
