  62
        -98.93438221
 C          2.2061397687        1.0769906295        0.6747932148
 C          2.2301964462        0.1403577703       -0.3871382724
 C          3.1114229136       -1.0295654704       -0.2038259833
 C          3.7788877628       -1.1866146518        0.9508732107
 C          4.6958491170       -2.3109478034        1.3633822310
 C          5.6989672586       -2.8258655503        0.3217812107
 C          6.2265358371       -1.7641885801       -0.6544047377
 H          5.9497963286       -0.7668038743       -0.3086284847
 H          7.3168696307       -1.8112452245       -0.6734480564
 C          5.7235294392       -1.9657188060       -2.0859777454
 H          6.3940780595       -1.4409533328       -2.7706339850
 H          5.7752822245       -3.0293216670       -2.3286889887
 C          4.3085030380       -1.4586310378       -2.3623420438
 H          4.0312180403       -1.7661888893       -3.3734001995
 H          4.2979997636       -0.3653357974       -2.3468116877
 C          3.2271551301       -1.9489434231       -1.3852550517
 H          2.2614570733       -1.9042726957       -1.8971664357
 H          3.4078285901       -2.9768782431       -1.0798095559
 H          5.2480045896       -3.6377211945       -0.2472714968
 H          6.5339056191       -3.2575279891        0.8763026353
 H          4.0770132630       -3.1452638844        1.7069733972
 H          5.2351724154       -1.9312903003        2.2346720173
 O          3.6649105940       -0.2978244624        1.9791957977
 C          2.8880080928        0.8427702836        1.8699265113
 O          2.8758532365        1.5520019208        2.8964366317
 O          1.5542802381        0.2567680747       -1.4407082542
 C          1.3651539483        2.3408086827        0.6093061955
 C         -0.0209374012        2.0085992346        0.1126287378
 C         -0.5943898674        2.5680219789       -1.0208212216
 C         -1.8689622309        2.1981283483       -1.4137056887
 C         -2.5988636590        1.2752346150       -0.6877705083
 C         -2.0328747928        0.7056840842        0.4455194327
 C         -0.7580782762        1.0807958450        0.8388850558
 H         -0.3131567330        0.6318456409        1.7198653628
 N         -2.7694590168       -0.2238770705        1.2014454471
 S         -3.5205963786       -1.4950230008        0.4016557009
 O         -3.6657988361       -2.5299769304        1.4032583165
 O         -2.8178338075       -1.8638311707       -0.8050230244
 C         -5.1309113986       -0.8474026312        0.0026702860
 C         -5.5792831558       -0.8719747155       -1.3033555183
 C         -6.8379764043       -0.3660685724       -1.5893063488
 C         -7.6219255583        0.1511657302       -0.5694763347
 C         -7.1582849266        0.1650550784        0.7377194884
 C         -5.9015226815       -0.3398366862        1.0304155772
 H         -5.5052363492       -0.3507066816        2.0320181358
 H         -7.7708153537        0.5678052506        1.5282223934
 H         -8.6001588550        0.5455997853       -0.7947528581
 H         -7.2000920206       -0.3770575160       -2.6047956519
 H         -4.9316973516       -1.2783730023       -2.0640783457
 H         -2.2768651613       -0.5629051043        2.0152400070
 H         -3.5889890348        0.9816706753       -0.9957284439
 H         -2.2999671294        2.6337433494       -2.3022765910
 H         -0.0337465102        3.2718581532       -1.6133230442
 H          1.2722906404        2.6708565148        1.6575676000
 C          2.0212443503        3.4869513566       -0.1461958511
 C          3.5136735533        3.6026388054       -0.2256684537
 C          2.7197712105        3.2916198969       -1.4569376306
 H          2.6217386883        4.0612108797       -2.2087336665
 H          2.7564040901        2.2918911417       -1.8591423117
 H          3.9580324689        4.5820332502       -0.1306650895
 H          4.1010218817        2.8127304875        0.2203862225
 H          1.4761165257        4.4170603297       -0.0187004504
