  62
        -98.94225371
 C         -0.9350519436       -1.4019074094        0.0075441015
 C         -1.5263567536       -0.4878250926        0.9076616345
 C         -2.4755895496        0.4825301797        0.3366445551
 C         -2.7372872737        0.4514834859       -0.9834771227
 C         -3.5932603888        1.3556421553       -1.8456504732
 C         -4.6354281490        2.2794397051       -1.2196912871
 C         -5.8005023198        1.5644644152       -0.5367982456
 H         -6.4311196574        2.3199792920       -0.0629750867
 H         -6.3983720261        1.0638544568       -1.3024528312
 C         -5.4106292363        0.5179861620        0.5040735089
 H         -6.3320040009        0.1046608651        0.9230991919
 H         -4.8820453827       -0.3038130846        0.0165623666
 C         -4.5625498626        1.0351496853        1.6645376993
 H         -4.5087613024        0.2380644137        2.4105629241
 H         -5.0553422972        1.8930133440        2.1258183435
 C         -3.1179435809        1.4305904375        1.3082758379
 H         -2.5210566393        1.3810856846        2.2237354186
 H         -3.0637489891        2.4525058498        0.9382135242
 H         -5.0472861020        2.8786493133       -2.0365308886
 H         -4.1592969633        2.9728033059       -0.5324400643
 H         -2.8851452848        1.9673615972       -2.4174548840
 H         -4.0856157398        0.6974297797       -2.5687982028
 O         -2.1600924411       -0.4674232549       -1.8112263234
 C         -1.2387865746       -1.3954748278       -1.3527967501
 O         -0.7826645198       -2.1455323776       -2.2369568976
 O         -1.2590818868       -0.4671234820        2.1397388982
 C          0.1131510398       -2.3651642782        0.5249477572
 C          1.4613455431       -2.0997000905       -0.1047116043
 C          2.4432786839       -3.0802050309       -0.1976580962
 C          3.6743818663       -2.7874951176       -0.7577218872
 C          3.9600813945       -1.5182597165       -1.2279187908
 C          2.9855919505       -0.5305640553       -1.1393017695
 C          1.7564962663       -0.8276108324       -0.5724703229
 H          1.0022282430       -0.0582845776       -0.5328458205
 N          3.2212701229        0.7606401927       -1.6224618579
 S          2.3413014743        2.0795225680       -1.1192885698
 O          0.9954878859        2.0294799535       -1.6366016809
 O          3.1383296613        3.2094295307       -1.5496165000
 C          2.3287124605        2.0029441312        0.6624692006
 C          3.5411139312        1.9917720861        1.3241205948
 C          3.5484729807        1.9124073282        2.7068985239
 C          2.3499569065        1.8409761666        3.4011421311
 C          1.1411965353        1.8607431846        2.7234592012
 C          1.1290359341        1.9457337515        1.3406850681
 H          0.2056639280        1.9525472047        0.7813880756
 H          0.2062655402        1.7862371438        3.2552073364
 H          2.3553248326        1.7688973987        4.4772833354
 H          4.4861154445        1.9004806367        3.2387605191
 H          4.4531623669        2.0533423775        0.7533951111
 H          4.1690260467        0.9784987796       -1.8867276542
 H          4.9181433127       -1.2945447439       -1.6706838154
 H          4.4249803288       -3.5598026345       -0.8288981702
 H          2.2392469204       -4.0755725867        0.1620155474
 H          0.1978967537       -2.1519404247        1.6021367377
 C         -0.3392017093       -3.8019632584        0.3493624971
 C         -0.0151662813       -4.8391177383        1.3818588455
 C         -1.4183391722       -4.3330151955        1.2437841738
 H         -2.1676601766       -4.9835850809        0.8184268273
 H         -1.7995263535       -3.6680442450        2.0051530316
 H          0.1995079970       -5.8443483330        1.0515117957
 H          0.5470949394       -4.5267452475        2.2489189944
 H         -0.3611134041       -4.1035649595       -0.6918344031
