  62
        -98.94526366
 C          1.4717013892        1.2522934702       -0.4572758008
 C          2.8040122792        1.3644034906        0.0205806591
 C          3.7728220193        0.4021041405       -0.5121837406
 C          3.3733825994       -0.5123141699       -1.4140442203
 C          4.2438474095       -1.5501250900       -2.0694848499
 C          4.4378434397       -2.8211136097       -1.2315109595
 C          5.3496554897       -2.6636804291       -0.0139393196
 H          5.5738491299       -3.6683455290        0.3500284808
 H          6.2922959296       -2.2112862791       -0.3237118097
 C          4.7374182096       -1.8487977988        1.1341504302
 H          3.6547233196       -1.7834932790        0.9983581202
 H          4.9076667397       -2.3679875584        2.0801592504
 C          5.3051783895       -0.4371344387        1.2836087596
 H          6.3613973395       -0.4947211984        1.5558794396
 H          4.7727663694        0.0600936916        2.0984139895
 C          5.1705147193        0.4344016509        0.0282725193
 H          5.3964976592        1.4676548410        0.3027607289
 H          5.8800562093        0.1104922907       -0.7328324406
 H          4.8702934798       -3.5809705899       -1.8867660192
 H          3.4570703598       -3.1800004697       -0.9090968993
 H          5.2162338194       -1.1166170500       -2.3054993801
 H          3.7491094395       -1.8259711104       -3.0032645998
 O          2.0943116694       -0.5780153802       -1.8635988102
 C          1.1076141493        0.2762659298       -1.3855200905
 O         -0.0105032707        0.0656887095       -1.8917923804
 O          3.1693477591        2.2415971709        0.8483802787
 C          0.4595969291        2.2241614803        0.1296906188
 C         -0.2296868308        1.5695785806        1.3043168291
 C          0.1356756092        1.9090246911        2.6024498290
 C         -0.4650838207        1.2936936215        3.6856449192
 C         -1.4357514006        0.3284023913        3.4927116896
 C         -1.8064024206       -0.0225529493        2.1979992197
 C         -1.2098030307        0.6046798804        1.1134431695
 H         -1.4789688707        0.3095754600        0.1135135596
 N         -2.8063839104       -0.9790585195        1.9896043001
 S         -2.8282909204       -1.9804789000        0.6477242005
 O         -3.6534850302       -3.0959424799        1.0682705709
 O         -1.4957631303       -2.3155329599        0.2056595506
 C         -3.7338831805       -1.0385635305       -0.5604485998
 C         -3.1444659506       -0.6396447109       -1.7419998600
 C         -3.8970745307        0.0976453687       -2.6447390502
 C         -5.2138991908        0.4168651586       -2.3546491703
 C         -5.7919420707        0.0027526290       -1.1634670001
 C         -5.0471643205       -0.7326347006       -0.2571134999
 H         -5.4586996505       -1.0820957303        0.6750825903
 H         -6.8167118707        0.2524788889       -0.9403539002
 H         -5.7917343509        0.9916126783       -3.0613603905
 H         -3.4417872708        0.4203036884       -3.5677480904
 H         -2.1104144406       -0.8826117508       -1.9330598999
 H         -3.1318574503       -1.4487512492        2.8211996603
 H         -1.9033184505       -0.1572949785        4.3358416698
 H         -0.1716248207        1.5638774519        4.6888528791
 H          0.9116393191        2.6451725013        2.7540854187
 H          1.0612411090        3.0550241705        0.5237621685
 C         -0.5284350710        2.7831067798       -0.8723256213
 C         -1.2825211012        4.0295786198       -0.5210110018
 C         -0.2140907012        4.0705273896       -1.5710156018
 H         -0.5065885513        4.1787274192       -2.6045155718
 H          0.7204671987        4.5560688798       -1.3299438420
 H         -2.3127318012        4.1108725296       -0.8311350217
 H         -1.0716042812        4.4878778502        0.4334142281
 H         -1.0472128010        2.0262643295       -1.4446799010
