  62
        -98.94021610
 C         -1.0361079629       -1.6541381534       -0.2201479956
 C         -1.1682212909       -0.2590872796       -0.4172121272
 C         -2.2959652012        0.4045643043        0.2690614159
 C         -3.1122518406       -0.3259757948        1.0487338539
 C         -4.3352156467        0.1422871637        1.7888180889
 C         -5.5499662732        0.3362650923        0.8600552902
 C         -5.2323388258        0.9157952957       -0.5175420543
 H         -6.1335873588        0.8296248853       -1.1302745477
 H         -4.4598697775        0.3074878581       -0.9917012928
 C         -4.8024861783        2.3809645514       -0.5265444188
 H         -5.6377000331        2.9980534425       -0.1865152785
 H         -4.5857591075        2.6542688757       -1.5621012409
 C         -3.5834032226        2.7221881550        0.3293486562
 H         -3.8357302954        2.6748250678        1.3854143965
 H         -3.3184166356        3.7630948847        0.1204763474
 C         -2.3326098900        1.8956413909        0.0401008365
 H         -1.5036599200        2.3015083767        0.6343437114
 H         -2.0429498759        2.0394886406       -1.0066035654
 H         -6.2769361403        0.9726236601        1.3668725023
 H         -6.0090318073       -0.6428426033        0.7050469426
 H         -4.1038199413        1.0532110455        2.3341106878
 H         -4.5769447045       -0.6297194072        2.5225721355
 O         -2.9452021686       -1.6672836905        1.2201932771
 C         -1.9132039327       -2.3528530188        0.6136676237
 O         -1.8844931003       -3.5728209907        0.8795307980
 O         -0.4026003310        0.4325959209       -1.1408368739
 C          0.0716120574       -2.4950268356       -0.8381360518
 C          1.3382205438       -2.3811678219       -0.0243290863
 C          1.9547577544       -3.5044885854        0.5138753597
 C          3.1053170780       -3.3774457635        1.2723706924
 C          3.6501053934       -2.1307708434        1.5237875854
 C          3.0382468726       -1.0021454591        0.9904985210
 C          1.9045600645       -1.1358872247        0.2046526183
 H          1.4360899870       -0.2565505113       -0.2036970935
 N          3.5559350631        0.2828588699        1.2113860247
 S          2.5073156496        1.5752542603        1.4076342864
 O          3.2867361207        2.5603464617        2.1336884489
 O          1.2749732677        1.1733549405        2.0486343607
 C          2.2019988586        2.2118845825       -0.2262933098
 C          2.9540569466        1.7988299338       -1.3058778553
 C          2.6912543687        2.3497018120       -2.5502509826
 C          1.6924003289        3.2990527188       -2.6929276835
 C          0.9521963104        3.7095025009       -1.5959353519
 C          1.2108383147        3.1635278456       -0.3502152685
 H          0.6551111267        3.4486836942        0.5294749449
 H          0.1711015523        4.4447705821       -1.7065930222
 H          1.4851719568        3.7182086790       -3.6651322157
 H          3.2629862638        2.0286599870       -3.4064421878
 H          3.7151684512        1.0482134637       -1.1698836899
 H          4.3349488414        0.3338833976        1.8513381067
 H          4.5365730989       -2.0296452563        2.1313943529
 H          3.5754055602       -4.2570788548        1.6854980014
 H          1.5166560475       -4.4782898069        0.3505797493
 H         -0.2756225951       -3.5354466493       -0.7743576821
 C          0.3409287163       -2.1659688182       -2.2940781672
 C          0.9882377804       -3.1990311947       -3.1644966110
 C         -0.4564581359       -2.8513474984       -3.3607353915
 H         -0.7401146360       -2.2849379105       -4.2348298165
 H         -1.2015062561       -3.5675950572       -3.0450002093
 H          1.7003412498       -2.8729313575       -3.9065807080
 H          1.2221981240       -4.1543754843       -2.7195331763
 H          0.6035829722       -1.1291340320       -2.4557502215
