  62
        -98.94787645
 C         -1.6844811902       -1.1127474931        0.5439759223
 C         -1.4037337264        0.0631487463        1.2818073621
 C         -2.2256133885        1.2371398532        0.9641561811
 C         -3.1547966402        1.1466603642       -0.0040256315
 C         -4.0596405927        2.2638479329       -0.4362902216
 C         -3.4685110961        3.0547301548       -1.6102129234
 C         -2.0205230781        3.4966464290       -1.3974083749
 H         -1.3655191639        2.6211765132       -1.3980226587
 H         -1.7355284022        4.1009563498       -2.2621879479
 C         -1.7818718437        4.3024687834       -0.1129608679
 H         -1.1326530094        5.1479453221       -0.3513437648
 H         -2.7249452417        4.7096533930        0.2545126584
 C         -1.0923831111        3.5117355987        1.0005636024
 H         -0.2402392519        2.9762642193        0.5742062467
 H         -0.7103205498        4.2211357231        1.7399290095
 C         -1.9686196632        2.4952901886        1.7437720715
 H         -2.9070324296        2.9654305112        2.0457935508
 H         -1.4316440449        2.1852476008        2.6449760584
 H         -3.5053979128        2.4289636593       -2.5049804915
 H         -4.0952352424        3.9322757885       -1.7826787537
 H         -5.0109493521        1.8290463440       -0.7489142427
 H         -4.2353227883        2.9264822838        0.4090591701
 O         -3.3635814324        0.0158560685       -0.7244587938
 C         -2.6140887348       -1.1293781099       -0.4950660388
 O         -2.8819878450       -2.0729099690       -1.2639014640
 O         -0.5154023260        0.1222853745        2.1749810719
 C         -0.8540863228       -2.3575494117        0.8173105957
 C          0.0844551433       -2.5431620810       -0.3487456179
 C          0.0850258863       -3.6455979629       -1.1913104764
 C          0.9330674857       -3.6811203311       -2.2859759791
 C          1.7831344992       -2.6267412594       -2.5640114456
 C          1.7999802830       -1.5245870762       -1.7142680129
 C          0.9703487888       -1.5035606701       -0.6069587442
 H          0.9738487472       -0.6460626387        0.0491153772
 N          2.6719466364       -0.4518305440       -1.9389167080
 S          2.3847903768        1.0636358642       -1.3037953871
 O          0.9849039971        1.4201096770       -1.3407222104
 O          3.2665315919        1.9358620425       -2.0538567816
 C          2.9736679336        0.9736818077        0.3756489490
 C          2.6160932576        1.9919885776        1.2359453415
 C          3.0819583039        1.9697772998        2.5402653893
 C          3.9018511098        0.9347306888        2.9605368459
 C          4.2605446755       -0.0760584764        2.0828467858
 C          3.7967062507       -0.0592623867        0.7768827936
 H          4.0536040049       -0.8378154316        0.0780400707
 H          4.8978788123       -0.8813412640        2.4114482013
 H          4.2604740863        0.9156262174        3.9776323001
 H          2.7992256644        2.7561520648        3.2215090549
 H          1.9737149964        2.7785965737        0.8733644517
 H          3.1417799453       -0.4316895542       -2.8306460898
 H          2.4263221129       -2.6499629967       -3.4302930234
 H          0.9207835118       -4.5386387336       -2.9416638405
 H         -0.5889105142       -4.4651677570       -1.0049472157
 H         -0.2503010470       -2.1137043214        1.7034881153
 C         -1.7152398823       -3.5616633284        1.1244349467
 C         -1.1306077368       -4.7177236143        1.8782128484
 C         -2.1294747493       -3.8190978086        2.5412412140
 H         -3.1239036131       -4.1970834903        2.7251690541
 H         -1.7782552215       -3.1308536455        3.2961097917
 H         -1.4387401096       -5.7167961688        1.6101877128
 H         -0.0986798614       -4.6412663415        2.1851842295
 H         -2.4416709918       -3.7705012077        0.3483119617
