  62
        -98.94464651
 C          1.7787285000        1.0675003199       -0.0495750999
 C          2.9822779999        1.0943522598        0.7057869603
 C          4.1698959900        0.5222483200        0.0649420104
 C          4.0782382502        0.0266337803       -1.1820116298
 C          5.2014344804       -0.5707237795       -1.9850194497
 C          5.4719054004       -2.0495996495       -1.6758805400
 C          6.1427490402       -2.3207808398       -0.3286211400
 H          6.4723329902       -3.3616436398       -0.3390440402
 H          7.0335194901       -1.6986882998       -0.2358224197
 C          5.2320717000       -2.1046026601        0.8882713799
 H          4.1884387500       -2.0881423701        0.5650086198
 H          5.3385878999       -2.9461042203        1.5766287998
 C          5.5243976098       -0.8310347203        1.6818467203
 H          6.5205911197       -0.8962891603        2.1249936904
 H          4.7976078997       -0.7606857505        2.4951434002
 C          5.4403101699        0.4601889899        0.8576152405
 H          5.4435307497        1.3077607098        1.5472815607
 H          6.3040342700        0.5422838201        0.1980476807
 H          4.5276601304       -2.5967008895       -1.7291139503
 H          6.1225963705       -2.4334943193       -2.4650236900
 H          4.9128854005       -0.4857296692       -3.0349467298
 H          6.1124331903        0.0073115906       -1.8272170995
 O          2.9147855303        0.0331326404       -1.8809514199
 C          1.7387797202        0.5309291802       -1.3363566800
 O          0.7623110903        0.4301820504       -2.1077309202
 H         -0.7281913499       -0.3208888900       -0.7085529906
 C         -0.9475381100       -0.3418120303        0.3486952594
 C         -0.3569614702        0.5954868196        1.1846069997
 C         -0.6477006204        0.5478056092        2.5427665196
 C         -1.5076025904       -0.4123588509        3.0487657093
 C         -2.0924167402       -1.3462030508        2.2120347690
 C         -1.8006732800       -1.3102441304        0.8550552390
 N         -2.4021619499       -2.2518566803       -0.0127660413
 S         -4.0575581998       -2.0585771903       -0.2002787815
 O         -4.7087542800       -2.4179292206        1.0337076783
 O         -4.4191637296       -2.8347935401       -1.3643772617
 C         -4.2660325699       -0.3167660002       -0.5194286411
 C         -4.1360462997        0.1353637801       -1.8170756310
 C         -4.2211912897        1.4956623501       -2.0645337407
 C         -4.4211114699        2.3756047899       -1.0121889805
 C         -4.5399220901        1.9064592296        0.2868598194
 C         -4.4612098301        0.5466878295        0.5396970991
 H         -4.5537242102        0.1411664193        1.5336910890
 H         -4.6890665603        2.5944931294        1.1031613995
 H         -4.4877088100        3.4344958199       -1.2084019903
 H         -4.1252200296        1.8637295703       -3.0735372006
 H         -3.9836255496       -0.5821425298       -2.6077237711
 H         -1.9704717397       -2.2572505300       -0.9272209912
 H         -2.7754310603       -2.0930733709        2.5832847187
 H         -1.7237186306       -0.4353059612        4.1059985193
 H         -0.1866510205        1.2650301391        3.2058712999
 C          0.5501112498        1.6614638697        0.6188934901
 H          0.9435154597        2.2468935596        1.4606550103
 C         -0.2388173101        2.5906599399       -0.2841128298
 C         -1.1025301302        3.6444260997        0.3380698503
 C          0.1567085299        4.0324258799       -0.3759470294
 H          0.0803395100        4.5264124201       -1.3328077693
 H          1.0010055898        4.3570472998        0.2148551608
 H         -1.1132239804        3.7094519595        1.4152664703
 H         -2.0482859901        3.8709857298       -0.1276727098
 H         -0.5957878999        2.1136865701       -1.1875448000
 O          3.0593304097        1.5866601296        1.8624709304
