  62
        -98.93823691
 C          2.4890853171        0.7224228480        0.0206460813
 C          2.8725536959       -0.4404854401        0.7373253745
 C          3.9985553694       -1.2066425588        0.1905379917
 C          4.5817897461       -0.7889021732       -0.9475419016
 C          5.7702932425       -1.4397844361       -1.5925100462
 C          7.0830750394       -0.8250116321       -1.0873037934
 C          7.1707780271       -0.7216151978        0.4353647213
 H          6.4202230364       -0.0105324292        0.7882184655
 H          8.1495168114       -0.3016216063        0.6772435584
 C          6.9899885036       -2.0554047944        1.1735012686
 H          7.7552750846       -2.1331943731        1.9486604990
 H          7.1436009674       -2.8850718782        0.4825741909
 C          5.6358360949       -2.2180804604        1.8665105897
 H          5.4352109140       -1.3425754197        2.4893369819
 H          5.6957041629       -3.0845317824        2.5305721275
 C          4.4334225896       -2.4350835630        0.9390709883
 H          3.5811439084       -2.7234435732        1.5612691014
 H          4.6455960464       -3.2526096640        0.2470605061
 H          7.1775648551        0.1802621877       -1.5043370909
 H          7.9130001656       -1.4273091643       -1.4613543998
 H          5.7009017714       -1.2902761825       -2.6712262612
 H          5.7516065594       -2.5072082334       -1.3812996357
 O          4.1752035566        0.3150727621       -1.6204983608
 C          3.1239094019        1.1027145966       -1.1627931456
 O          2.8787580384        2.0778028186       -1.8947277499
 O          2.2980965302       -0.8144511444        1.7958605838
 C          1.3361994688        1.5212831000        0.6019494703
 C          0.0211692613        1.0452585525        0.0393423712
 C         -0.1958370504        0.9760272915       -1.3334464435
 C         -1.4116705928        0.5405638238       -1.8278325593
 C         -2.4294138171        0.1592247661       -0.9704668286
 C         -2.2226328805        0.2204336773        0.4006653165
 C         -1.0022078000        0.6652223379        0.8947019462
 H         -0.8404087375        0.7003542519        1.9638274805
 N         -3.2425297637       -0.1846188686        1.2753445503
 S         -4.8013633953        0.3854498359        1.0297700450
 O         -4.7922892635        1.6802136045        0.3901491691
 O         -5.4356505525        0.3120367171        2.3274916687
 C         -5.5388713294       -0.8261590232       -0.0459932062
 C         -6.0975793616       -0.4322860144       -1.2460165628
 C         -6.6757512104       -1.3914789408       -2.0629897538
 C         -6.6855272386       -2.7200856006       -1.6669823272
 C         -6.1227679953       -3.0988519028       -0.4571194118
 C         -5.5443645241       -2.1448286721        0.3646170720
 H         -5.1007698339       -2.3979895769        1.3131189328
 H         -6.1326033192       -4.1330463872       -0.1526032698
 H         -7.1348291513       -3.4649035067       -2.3047553743
 H         -7.1143501328       -1.0989595356       -3.0035301556
 H         -6.0633269699        0.6115374213       -1.5152356384
 H         -2.9880328607       -0.1475285991        2.2515782572
 H         -3.3762701605       -0.1835583070       -1.3541442856
 H         -1.5683662072        0.4941257765       -2.8949313862
 H          0.5970916983        1.2709776776       -2.0042701354
 H          1.3409247028        1.2715840135        1.6752425147
 C          1.5240201740        3.0278282085        0.4928186930
 C          0.6977955597        3.9132850563       -0.3856404691
 C          0.5102040084        3.9530365789        1.0994683846
 H          0.8560941106        4.8168946978        1.6466107345
 H         -0.3917401943        3.5105401789        1.4967374289
 H          1.1969051019        4.7374764101       -0.8716973303
 H         -0.0797121418        3.4646993832       -0.9833423224
 H          2.5654607216        3.3116130612        0.6066495917
