  62
        -98.94464799
 C         -1.6864919122        1.4159497015       -0.1634475786
 C         -1.6333150110        0.3307720031        0.7454056617
 C         -2.9335217670       -0.2129130297        1.1684362615
 C         -4.0671699744        0.3372153356        0.6977126407
 C         -5.4521254712       -0.1543020465        1.0015938663
 C         -5.9166943170       -1.1806432277       -0.0411166906
 C         -4.8994926244       -2.2891769627       -0.3132348814
 H         -4.0137508433       -1.8561153626       -0.7844213772
 H         -5.3473911245       -2.9707345137       -1.0397749338
 C         -4.4730396477       -3.0790619851        0.9320477183
 H         -4.4753371391       -4.1437686615        0.6891304642
 H         -5.1978424852       -2.9279449424        1.7329553742
 C         -3.0720422899       -2.7447072792        1.4483288839
 H         -2.3508949896       -2.8078615267        0.6284616832
 H         -2.7914368288       -3.5031734525        2.1844664782
 C         -2.9178471073       -1.3749004244        2.1212220848
 H         -1.9364874615       -1.3545940438        2.6042152827
 H         -3.6831978123       -1.2547352827        2.8908056537
 H         -6.1107146028       -0.6571155937       -0.9800932525
 H         -6.8541379563       -1.6218696708        0.3020682602
 H         -6.1314292397        0.6996065545        0.9851989938
 H         -5.4653332202       -0.5982108838        1.9949774876
 O         -4.0778331860        1.3883134966       -0.1609442059
 C         -2.8956328822        1.9366281659       -0.6283217473
 O         -3.0497522062        2.8730928221       -1.4383022727
 O         -0.5648318111       -0.1593876738        1.1938743864
 C         -0.4116128548        2.0339517547       -0.7163587182
 C          0.2497868106        1.0219999749       -1.6212824705
 C         -0.3899607090        0.6647298853       -2.8064010311
 C          0.1679490156       -0.2725943821       -3.6533803300
 C          1.3651554278       -0.8880950374       -3.3268503051
 C          2.0068433481       -0.5455026570       -2.1445212421
 C          1.4557444698        0.4175446577       -1.3090389510
 H          1.9728900077        0.6836763589       -0.4050175061
 N          3.2302748405       -1.1371536291       -1.7786778739
 S          3.3132691980       -1.8914253550       -0.2741799410
 O          4.4712934783       -2.7565616344       -0.3785729441
 O          2.0683460673       -2.5459947553        0.0516914552
 C          3.6826309001       -0.5817107832        0.8713280907
 C          2.7616690563       -0.2218030896        1.8353383852
 C          3.0844036306        0.8038917449        2.7110856574
 C          4.3095129424        1.4449627071        2.6081184909
 C          5.2224133018        1.0682231367        1.6340794644
 C          4.9091892698        0.0431235604        0.7564716155
 H          5.5898502550       -0.2869543128       -0.0105083821
 H          6.1728091057        1.5711781360        1.5562203844
 H          4.5517142833        2.2444350026        3.2908363054
 H          2.3707203595        1.1005165347        3.4637314896
 H          1.8039954849       -0.7188529964        1.8627751178
 H          3.6125819451       -1.7508973575       -2.4851873565
 H          1.7969102000       -1.6301988807       -3.9820064761
 H         -0.3357254455       -0.5352582987       -4.5717937114
 H         -1.3326894770        1.1355325231       -3.0513967196
 H         -0.7341604410        2.8805506013       -1.3386174072
 C          0.4854497877        2.5489068888        0.3885893100
 C          1.5904153689        3.5067748179        0.0617575724
 C          0.3833923523        3.9817103387        0.8122513469
 H          0.4855931787        4.2166331579        1.8608509192
 H         -0.3294046160        4.6063483459        0.2934926696
 H          2.5247219116        3.4130725214        0.5943828473
 H          1.6978396947        3.8104192708       -0.9685221720
 H          0.6660356965        1.8147494303        1.1634812907
