  62
        -98.93831810
 C         -2.5086307999       -0.2187035211        0.4777076399
 C         -2.3283252996        0.5148066182       -0.7163122604
 C         -2.0686652199        1.9614778583       -0.5784111712
 C         -2.0125407304        2.4957718191        0.6554127385
 C         -1.7419228808        3.9246467093        1.0491247677
 C         -0.2595937608        4.3071170195        0.9316590280
 C          0.4148801597        3.8725156188       -0.3663015115
 H          1.4709140896        4.1470798190       -0.2931758813
 H          0.3787765899        2.7836289088       -0.4409870808
 C         -0.1457448299        4.5084391980       -1.6367343721
 H         -0.0802809501        5.5955018680       -1.5498665227
 H          0.5016871404        4.2006599876       -2.4615542917
 C         -1.5841564797        4.1344839675       -2.0040257724
 H         -2.3036419200        4.7000968278       -1.4177909430
 H         -1.7382651294        4.4239211169       -3.0476393826
 C         -1.8934827195        2.6441267475       -1.9130247516
 H         -1.1139842393        2.0802507973       -2.4385069710
 H         -2.8182335593        2.4418207370       -2.4667948618
 H         -0.1750349110        5.3897622796        1.0467234374
 H          0.2794045490        3.8336567201        1.7565422885
 H         -2.3604310807        4.5980180589        0.4629270571
 H         -2.0431658412        4.0206279299        2.0950178275
 O         -2.1895353207        1.7447692797        1.7827058489
 C         -2.4163336005        0.3845925196        1.7288712696
 O         -2.5290270208       -0.1682415097        2.8449403899
 O         -2.3805910291       -0.0103496125       -1.8604685201
 C         -2.7175917797       -1.7196874612        0.4200322308
 C         -1.5604830293       -2.3795274314       -0.2935153284
 C         -1.7049379988       -3.5026576720       -1.0978389478
 C         -0.5996434985       -4.0704115621       -1.7090138171
 C          0.6619584613       -3.5306624918       -1.5433508469
 C          0.8158287209       -2.4008656113       -0.7451662776
 C         -0.2874073895       -1.8553844511       -0.1120493983
 H         -0.1553601498       -0.9931479207        0.5253536612
 N          2.0725196307       -1.7888366310       -0.6108700775
 S          2.3451437101       -0.6029005503        0.5471483819
 O          2.1084363797       -1.1237331195        1.8775297121
 O          1.6193232500        0.5857127594        0.1795065509
 C          4.0927233302       -0.3458041802        0.3055086324
 C          4.5092904103        0.5586798793       -0.6524050280
 C          5.8679590304        0.7375001894       -0.8596814676
 C          6.7825458002        0.0114946200       -0.1113087369
 C          6.3499569600       -0.8918425595        0.8479305635
 C          4.9926000400       -1.0747346796        1.0602200931
 H          4.6100291398       -1.7556501092        1.8035667634
 H          7.0629606899       -1.4523651390        1.4306954341
 H          7.8392190803        0.1532006201       -0.2741148666
 H          6.2075557005        1.4417061190       -1.6019080280
 H          3.7605109905        1.1042596589       -1.2030083386
 H          2.8547810509       -2.4155933010       -0.7310829168
 H          1.5188324516       -3.9679470920       -2.0317925164
 H         -0.7246804082       -4.9452620225       -2.3289451766
 H         -2.6823295187       -3.9317158122       -1.2474237679
 H         -2.7140444300       -2.0667461506        1.4651833910
 C         -4.0620475994       -2.0453310218       -0.1992146795
 C         -4.8372695294       -3.2457232316        0.2519974209
 C         -5.2983728497       -1.8709833515        0.6290406499
 H         -6.1840528096       -1.4727091519        0.1574905294
 H         -5.1642926901       -1.5467846709        1.6512263798
 H         -5.4121511290       -3.7929663922       -0.4798430589
 H         -4.4026656895       -3.8608669811        1.0256071715
 H         -4.1135874991       -1.7615063624       -1.2440291597
