  62
        -98.93957885
 C          2.4291556515        1.1849831485       -0.0380211670
 C          3.0749124747        0.3347340325        0.8878086431
 C          3.6053679395       -0.9326377971        0.3582257327
 C          3.4325452871       -1.2173925811       -0.9443842382
 C          3.8289284889       -2.4782428775       -1.6610771871
 C          2.6505231027       -3.4662691394       -1.7046372025
 C          2.5336327945       -4.3846246819       -0.4885423512
 H          1.5899865335       -4.9273178991       -0.5827514483
 H          3.3409789311       -5.1196757710       -0.5136960510
 C          2.5572716577       -3.6788904482        0.8700234429
 H          2.1008221625       -4.3487604312        1.6018717513
 H          1.9338694403       -2.7827737884        0.8262180671
 C          3.9752181670       -3.3193005352        1.3399732970
 H          4.1177102950       -3.6810123021        2.3602648756
 H          4.6970116706       -3.8500002963        0.7194080926
 C          4.3088149495       -1.8188354661        1.3497341895
 H          4.0542840725       -1.3962974472        2.3268576298
 H          5.3893081056       -1.6934203035        1.2256653632
 H          2.7503908891       -4.0934127247       -2.5929176026
 H          1.7287247184       -2.8878344362       -1.8160896712
 H          4.0787930434       -2.1908198979       -2.6843761836
 H          4.7022521910       -2.9276846813       -1.1976822880
 O          2.7933528275       -0.3758592222       -1.8014280757
 C          2.2573476005        0.8276258666       -1.3757016151
 O          1.6758969544        1.4745072146       -2.2660829627
 H          0.3304568690        0.5845426799        1.5468220515
 C         -0.2883184693        1.2689339651        0.9781304090
 C          0.3105480539        2.3550817370        0.3496568195
 C         -0.4930882968        3.2239062431       -0.3747517858
 C         -1.8549264211        2.9939013141       -0.4793561979
 C         -2.4419038393        1.9013591545        0.1322731810
 C         -1.6471350282        1.0319940737        0.8684237624
 N         -2.2368868096       -0.0988068203        1.4818765693
 S         -2.7383228547       -1.2864473547        0.3940244948
 O         -2.7787595781       -2.5146469260        1.1584636687
 O         -1.9117311346       -1.2970103234       -0.7926495318
 C         -4.3990370160       -0.7945136546       -0.0122170741
 C         -4.7094781746       -0.4156171715       -1.3031807655
 C         -6.0093384767       -0.0295059733       -1.5923640631
 C         -6.9683493948       -0.0285200439       -0.5908433334
 C         -6.6396264713       -0.4127242497        0.7009256169
 C         -5.3428051285       -0.8010195260        0.9965694128
 H         -5.0437851162       -1.1122964007        1.9834773590
 H         -7.3881567437       -0.4102213578        1.4767087937
 H         -7.9782626957        0.2736759445       -0.8189918329
 H         -6.2662961955        0.2699892063       -2.5957374395
 H         -3.9279068110       -0.4262674402       -2.0462551567
 H         -1.6260251698       -0.5282995164        2.1641301172
 H         -3.5003304649        1.7163832944        0.0466099386
 H         -2.4667467415        3.6737299698       -1.0522749538
 H         -0.0514218007        4.0719863319       -0.8712384866
 C          1.8102526767        2.4797083443        0.4627107891
 H          2.0697204743        2.5334751575        1.5302138772
 C          2.3881208269        3.6856953543       -0.2432870640
 C          2.3298864966        5.0317046074        0.4134691574
 C          3.6384394125        4.3116852727        0.2951510015
 H          4.3717160611        4.6815764140       -0.4055465116
 H          4.0677246340        3.8776110479        1.1864241980
 H          2.1662802297        5.9005782089       -0.2055193193
 H          1.8706698361        5.0911575339        1.3885179461
 H          2.2792141507        3.6334970831       -1.3201846021
 O          3.1892677915        0.6147602490        2.1135433120
