  62
        -98.93836451
 C          2.4245316023       -1.2173480724        0.0707048607
 C          3.1522095034       -0.4650765263       -0.8783994539
 C          3.9815749012        0.6341843850       -0.3553593184
 C          3.9931015052        0.8801543086        0.9684956820
 C          4.7662725396        1.8959894386        1.7833935829
 C          5.4279983812        3.0973029309        1.1125819150
 C          4.4573244321        4.1034606494        0.4956603493
 H          5.0412970713        4.8648438366       -0.0259699895
 H          3.9091398896        4.5983757659        1.3011952982
 C          3.4286256623        3.5204947951       -0.4703034739
 H          2.8132997043        4.3447421993       -0.8418851191
 H          2.7632229756        2.8419591177        0.0682889393
 C          4.0082945408        2.7911965543       -1.6813321350
 H          4.7098383596        3.4450082070       -2.2028830342
 H          3.1806948456        2.5786293190       -2.3642442414
 C          4.7117060423        1.4559442088       -1.3782014709
 H          5.7454093870        1.6114092155       -1.0790620338
 H          4.7216701797        0.8641847219       -2.2982596233
 H          6.1514395210        2.7664268815        0.3733209706
 H          5.9890738862        3.6178865813        1.8933548529
 H          5.5392743606        1.3270359523        2.3116638836
 H          4.0696283661        2.2524985661        2.5486217390
 O          3.2637536396        0.1309420071        1.8461614217
 C          2.4578399230       -0.9170322705        1.4312956505
 O          1.8383992547       -1.4828302000        2.3504384187
 O          3.1121255438       -0.6993723028       -2.1177850789
 C          1.5414785215       -2.3547769142       -0.4065791936
 C          0.0956933222       -2.0685139938       -0.0790054373
 C         -0.7683993249       -3.0144030105        0.4560780375
 C         -2.0875869410       -2.6881582226        0.7211347560
 C         -2.5739153319       -1.4209919062        0.4593890436
 C         -1.7226325398       -0.4703654661       -0.0893341321
 C         -0.4043346629       -0.8023395445       -0.3591584562
 H          0.2562736886       -0.0602259405       -0.7919525633
 N         -2.2032664119        0.8255000038       -0.3506313121
 S         -3.6075747397        0.9770531575       -1.2601756728
 O         -3.7613258793       -0.1245525613       -2.1821717687
 O         -3.5374826674        2.2988446454       -1.8441103522
 C         -4.9106913124        0.9460827601       -0.0478927406
 C         -4.8607846363        1.8618493837        0.9847583144
 C         -5.8718149970        1.8569387412        1.9323192182
 C         -6.9112151905        0.9441809875        1.8297472674
 C         -6.9487459832        0.0338608280        0.7846990120
 C         -5.9396419785        0.0323845055       -0.1658518555
 H         -5.9230585963       -0.6605574226       -0.9918812534
 H         -7.7577846899       -0.6744602022        0.7066721090
 H         -7.6964771658        0.9426620474        2.5691070329
 H         -5.8455632713        2.5630198441        2.7466696381
 H         -4.0374702654        2.5553984958        1.0265581086
 H         -1.4939604375        1.4573501903       -0.6933130791
 H         -3.5980433282       -1.1620303186        0.6726074382
 H         -2.7457029795       -3.4320218935        1.1434539683
 H         -0.4085571807       -4.0072177752        0.6699317165
 H          1.6428354436       -2.3628460922       -1.5027661217
 C          2.0376680235       -3.6779175468        0.1369988424
 C          1.8242270597       -4.9421440750       -0.6391010556
 C          3.1956021731       -4.3470918523       -0.5387379113
 H          3.9328893872       -4.8444749740        0.0732785474
 H          3.6090068292       -3.8608829345       -1.4105221106
 H          1.6218973446       -5.8529374219       -0.0960574555
 H          1.3081392895       -4.8675093448       -1.5844589521
 H          1.9947888617       -3.7245423906        1.2192220478
