  62
        -98.93838637
 C          0.8166364664        1.2619620895        0.6836104242
 C          1.1374363266        0.6984867200       -0.5736812294
 C          2.0993205061       -0.4220008965       -0.5629867418
 C          2.5103236930       -0.9208891188        0.6144605432
 C          3.5185284769       -2.0104124492        0.8603863227
 C          4.9269075507       -1.4203513919        1.0495039117
 C          5.7239664719       -1.2251430121       -0.2394049605
 H          6.0096530188       -2.2014805762       -0.6363231554
 H          6.6433323206       -0.6972002062        0.0243268196
 C          5.0030878195       -0.4400038589       -1.3376059879
 H          5.7583454393       -0.0538194940       -2.0248118026
 H          4.4962965550        0.4215306289       -0.8987781377
 C          3.9967172349       -1.2911631782       -2.1262985987
 H          4.1433597350       -2.3416036560       -1.8779426364
 H          4.1999470996       -1.1943577058       -3.1947985088
 C          2.5263089135       -0.9068527203       -1.9213661352
 H          1.8893658057       -1.7507210476       -2.2028379954
 H          2.2667139802       -0.0893632740       -2.6015697908
 H          5.4986535485       -2.0825594687        1.7029843506
 H          4.8236151002       -0.4630901737        1.5673873149
 H          3.5042374415       -2.7420642619        0.0585712657
 H          3.2258642374       -2.4997201500        1.7918754698
 O          2.0649367794       -0.4336335629        1.8077565137
 C          1.2389032777        0.6715088922        1.8760769673
 O          0.9443725012        1.0213526349        3.0375695372
 O          0.6719052972        1.1111681297       -1.6663148232
 C         -0.0731768650        2.4866953263        0.8048281907
 C         -1.2744448853        2.3387283388       -0.0948673462
 C         -1.5663889045        3.1948492864       -1.1479074659
 C         -2.6821219935        2.9736140935       -1.9357981725
 C         -3.5246221226        1.9054066115       -1.6913391941
 C         -3.2455925818        1.0482038528       -0.6316031369
 C         -2.1299829590        1.2729423415        0.1572330724
 H         -1.9195445748        0.6119532756        0.9859370250
 N         -4.0985936670       -0.0234161238       -0.3469545884
 S         -3.6920802115       -1.2945669110        0.6346045221
 O         -4.7517870864       -2.2554898344        0.4098091122
 O         -3.5293370977       -0.8492709314        1.9966402277
 C         -2.1674750950       -1.9931482929        0.0268860993
 C         -2.0761815235       -2.3360157462       -1.3072152898
 C         -0.9407180421       -2.9905647668       -1.7552613382
 C          0.0737286911       -3.3029339307       -0.8637595077
 C         -0.0266921437       -2.9414141780        0.4701041052
 C         -1.1555401184       -2.2767339400        0.9205317862
 H         -1.2685332604       -1.9768047387        1.9513590565
 H          0.7626641898       -3.1796993948        1.1644540043
 H          0.9455623208       -3.8384796819       -1.2051636665
 H         -0.8548563454       -3.2635855228       -2.7948027608
 H         -2.8904977648       -2.1015090590       -1.9729019598
 H         -4.7979938147       -0.2431832408       -1.0380525896
 H         -4.3910728909        1.7318131777       -2.3105368392
 H         -2.8945934009        3.6392386581       -2.7585837193
 H         -0.9066486068        4.0172212273       -1.3697080006
 H         -0.4349785626        2.4747402423        1.8469319648
 C          0.6642172695        3.8045018314        0.6150364704
 C          2.1051551216        3.9417125073        1.0048639135
 C          1.7112563519        3.9955964021       -0.4390678572
 H          1.7592324031        4.9483915960       -0.9456898536
 H          1.9452597491        3.1533475256       -1.0702336995
 H          2.4209207044        4.8531883777        1.4898805003
 H          2.6099991027        3.0581383603        1.3683912547
 H          0.0272699224        4.6568649543        0.8311152693
