  62
        -98.94729686
 C         -2.3028294808       -0.6815994813        0.2248462360
 C         -1.6094572729        0.0027153713       -0.8029909974
 C         -1.8381774610        1.4521576505       -0.8765635484
 C         -2.5753456201        2.0612397880        0.0686771274
 C         -2.9176731889        3.5252380378        0.1263238463
 C         -1.8164837219        4.4000711467        0.7398224145
 C         -0.6084282448        4.6506714387       -0.1629327612
 H         -0.9510703586        4.9980694607       -1.1386227020
 H         -0.0343897636        5.4614483051        0.2902076008
 C          0.3155048763        3.4382264930       -0.3421468734
 H          0.1416826344        2.7126975900        0.4565731822
 H          1.3566869566        3.7584839443       -0.2468365615
 C          0.1867211505        2.7317831318       -1.6906803776
 H          0.4935219522        3.4110448625       -2.4899140983
 H          0.8733234719        1.8828828540       -1.6867745793
 C         -1.2201001569        2.2122581582       -2.0130488570
 H         -1.8670996216        3.0436514621       -2.2951804159
 H         -1.1413766797        1.5281551789       -2.8619605425
 H         -1.4816222535        3.9394039372        1.6725650340
 H         -2.2658658020        5.3650691053        0.9866275366
 H         -3.1555218767        3.8870298325       -0.8747506552
 H         -3.8117118258        3.6089835612        0.7482958526
 O         -3.1337033036        1.3840489144        1.1074816669
 C         -3.0137092322        0.0085767147        1.2089312154
 O         -3.5791737329       -0.4805030568        2.2093223443
 H         -0.2235333549       -1.2000334898        1.8311924400
 C          0.1381598711       -1.9620415162        1.1554336317
 C         -0.7553432520       -2.6081160613        0.3097901908
 C         -0.2676134260       -3.5840805749       -0.5491872203
 C          1.0830352599       -3.8892138425       -0.5661689663
 C          1.9749997129       -3.2114364781        0.2447249114
 C          1.4952902682       -2.2295163769        1.1044493125
 N          2.3602378569       -1.4717440214        1.9230489452
 S          2.4357500208        0.1741267335        1.6049346131
 O          3.3977874384        0.6977491709        2.5514709240
 O          1.1154407074        0.7453746885        1.6575546502
 C          3.1238796942        0.2711980571       -0.0390195182
 C          4.4421916502        0.6624018414       -0.1779380583
 C          5.0115082542        0.6772351675       -1.4405119772
 C          4.2595095443        0.2889829881       -2.5394203451
 C          2.9410165015       -0.1074840305       -2.3825323202
 C          2.3605105245       -0.1181004996       -1.1221780086
 H          1.3316901012       -0.4158426511       -0.9881769772
 H          2.3467971920       -0.4094965698       -3.2301203158
 H          4.7020319503        0.2952882429       -3.5230466159
 H          6.0367658606        0.9874247020       -1.5626592792
 H          4.9869914740        0.9515813277        0.7062886533
 H          3.3010982989       -1.8395715507        1.9702232721
 H          3.0318073546       -3.4298706289        0.2095524266
 H          1.4488022731       -4.6509299742       -1.2376295934
 H         -0.9400940037       -4.0919507857       -1.2207107707
 C         -2.2021448753       -2.1892320011        0.3945067281
 H         -2.5402139911       -2.3769828306        1.4276654688
 C         -3.1241320022       -2.9875442744       -0.5150847276
 C         -4.3884636786       -2.3869255198       -1.0517066299
 C         -3.2551346739       -2.7001394422       -1.9794768918
 H         -3.3663810973       -3.5346507402       -2.6563175307
 H         -2.6768968563       -1.8836783457       -2.3805819228
 H         -5.2735512749       -3.0043128284       -1.0879702306
 H         -4.5883373552       -1.3510874406       -0.8168629829
 H         -3.1818974738       -4.0295790673       -0.2155146657
 O         -0.8529271781       -0.5585969937       -1.6373110061
