  62
        -98.94349928
 C         -1.0034045493       -1.5884230400       -0.3962759606
 C         -1.2318973101       -0.2032993200       -0.5926722898
 C         -2.3577625107        0.3713083888        0.1641275503
 C         -3.0288022003       -0.3918189422        1.0433287297
 C         -4.2040283408        0.0627102065        1.8591151498
 C         -5.5285571304       -0.2080550439        1.1319001594
 C         -5.5472955105        0.2804009669       -0.3163564603
 H         -4.8303160600       -0.3043504922       -0.8969708806
 H         -6.5395472703        0.0659828565       -0.7190622707
 C         -5.2370547615        1.7741238972       -0.4850300594
 H         -5.3680001320        2.2890118966        0.4673919109
 H         -5.9546303816        2.2036209572       -1.1872857793
 C         -3.8411504216        2.0727370485       -1.0349539089
 H         -3.6718878010        1.4847496092       -1.9402035893
 H         -3.8079004722        3.1280842887       -1.3177626083
 C         -2.6725029316        1.8216312687       -0.0731954389
 H         -1.7721730618        2.2458791496       -0.5263797785
 H         -2.8552625721        2.3338761680        0.8743406014
 H         -6.3334289309        0.2722243552        1.6914203795
 H         -5.7094016297       -1.2854872840        1.1334495987
 H         -4.1972902706       -0.4859931440        2.8027248794
 H         -4.1019127315        1.1255582365        2.0707170104
 O         -2.7340230895       -1.6997468721        1.2600784690
 C         -1.7305254889       -2.3257697110        0.5409540888
 O         -1.5841069582       -3.5349513711        0.8166742981
 H          1.2877508898       -0.2010355487       -0.0624499994
 C          1.8337214503       -1.1027677984        0.1606516902
 C          1.3630996312       -2.3199868685       -0.3110330006
 C          2.0756962319       -3.4746945282       -0.0116315312
 C          3.2271323417       -3.4083160479        0.7535282790
 C          3.6816783409       -2.1958207879        1.2401931899
 C          2.9758461401       -1.0349611481        0.9429485204
 N          3.4162125092        0.2163161319        1.3930211113
 S          2.3244725183        1.4483346710        1.6889172918
 O          3.0571415176        2.3727038609        2.5324017425
 O          1.0870279686        0.9505256598        2.2474491913
 C          2.0484184081        2.2251421917        0.1117817222
 C          0.9444707076        3.0435642011       -0.0101394475
 C          0.7205903974        3.6958168017       -1.2112413271
 C          1.6001516577        3.5165509329       -2.2663366571
 C          2.7060906582        2.6937417135       -2.1267821274
 C          2.9395411284        2.0437504430       -0.9257489777
 H          3.7872491588        1.3922916134       -0.7907858880
 H          3.3857029485        2.5507618645       -2.9516913973
 H          1.4180004975        4.0168877433       -3.2044425168
 H         -0.1426549130        4.3329672011       -1.3218742569
 H          0.2763317974        3.1397459301        0.8316887324
 H          4.1800211691        0.2063001020        2.0521331714
 H          4.5709050007       -2.1456179876        1.8497436501
 H          3.7707415223       -4.3118408776        0.9844725586
 H          1.7107799026       -4.4284109182       -0.3636993918
 C          0.0894680114       -2.3660642088       -1.1144988709
 H         -0.2562598579       -3.4125007391       -1.1246555716
 C          0.2819247114       -1.9379692478       -2.5625567606
 C          1.4579787309       -1.1491731968       -3.0453325499
 C          1.3349774420       -2.5979021166       -3.4034208208
 H          1.0921472323       -2.8643988462       -4.4209000510
 H          1.9989649123       -3.2919208865       -2.9102925611
 H          2.2076977506       -0.8602201667       -2.3261411896
 H          1.2776245206       -0.4043396664       -3.8047205195
 H         -0.6664290787       -1.7283328282       -3.0466398207
 O         -0.5526534105        0.5304974009       -1.3539938293
