  62
        -98.93902630
 C         -2.3738393496       -1.1760499192       -0.0751723201
 C         -3.0064780095       -0.2719073091        0.8077363499
 C         -3.4829914693        0.9969771210        0.2300948098
 C         -3.2722813692        1.2289650209       -1.0789985502
 C         -3.6060422689        2.4871420309       -1.8301033303
 C         -2.5587422688        3.5967146307       -1.5950717603
 C         -1.9321939588        3.6196841507       -0.2001341303
 H         -1.5408738490        2.6259072207        0.0320692898
 H         -1.0678545287        4.2894226306       -0.2314586603
 C         -2.8510172988        4.0958723009        0.9252930996
 H         -3.0216904386        5.1686571509        0.8045188296
 H         -2.3218405888        3.9488788709        1.8705275497
 C         -4.2160885389        3.4160841512        1.0113422596
 H         -4.8135838988        3.6811968212        0.1431666096
 H         -4.7307567789        3.8285216213        1.8843717496
 C         -4.1912486492        1.9005899612        1.2089357697
 H         -3.7386659892        1.6774952511        2.1813698397
 H         -5.2282017092        1.5481191013        1.2738037497
 H         -1.7443809988        3.4428268606       -2.3066476603
 H         -3.0156467386        4.5644958208       -1.8063197904
 H         -3.6147260989        2.2359847708       -2.8923934103
 H         -4.6042979689        2.8173155711       -1.5558180804
 O         -2.6416999193        0.3392131107       -1.8920836902
 C         -2.1589626595       -0.8680961093       -1.4187391801
 O         -1.5813986096       -1.5626114695       -2.2754733800
 H         -0.3370034396       -0.5805513295        1.5950062700
 C          0.2913986303       -1.2833128596        1.0603924000
 C         -0.2998054299       -2.3717476295        0.4285770701
 C          0.5173201300       -3.2630304997       -0.2522693898
 C          1.8852287801       -3.0531157200       -0.3113860598
 C          2.4646366102       -1.9564965900        0.3006291102
 C          1.6555572503       -1.0648095198        0.9928664101
 N          2.2374748005        0.0791689901        1.5950386901
 S          2.6376158808        1.2810414200        0.4783913000
 O          2.7072022309        2.5091161200        1.2410291499
 O          1.7308294808        1.2759101901       -0.6480822800
 C          4.2732564107        0.8145709897       -0.0418194499
 C          5.3065128707        0.9402819595        0.8663528301
 C          6.5831176406        0.5619308693        0.4827405802
 C          6.8022455806        0.0665601292       -0.7943022998
 C          5.7538304706       -0.0525304307       -1.6941528998
 C          4.4740795507        0.3244439596       -1.3169798799
 H          3.6265026707        0.2456202597       -1.9793655799
 H          5.9254045406       -0.4386163808       -2.6860805498
 H          7.7963254406       -0.2286634310       -1.0909214597
 H          7.4010273006        0.6531939092        1.1790534302
 H          5.0896111207        1.3353112996        1.8447658301
 H          1.6332539105        0.4912496302        2.2940862200
 H          3.5276887702       -1.7857366602        0.2499178402
 H          2.5075649700       -3.7510954501       -0.8501007297
 H          0.0815266399       -4.1130157697       -0.7507897998
 C         -1.8046777899       -2.4693299893        0.4855841500
 H         -2.1064328199       -2.4865521292        1.5431655100
 C         -2.3763261501       -3.6851614192       -0.2079568699
 C         -2.3590146303       -5.0137991092        0.4855772801
 C         -3.6527042802       -4.2803338790        0.3036609600
 H         -4.3665826502       -4.6592747189       -0.4120217600
 H         -4.1061223301       -3.8177820589        1.1682591600
 H         -1.9339794804       -5.0531066192        1.4770367902
 H         -2.1867076404       -5.9010166192       -0.1043187998
 H         -2.2306337000       -3.6632789293       -1.2814226799
 O         -3.1501195496       -0.5058873590        2.0405923799
