  62
        -98.93546274
 C         -2.2583264499       -1.3286180788        0.1773827694
 C         -2.6467402998       -0.4012694888        1.1762902693
 C         -3.2912755996        0.8438318613        0.7288394392
 C         -3.4553917695        1.0601450013       -0.5890844208
 C         -4.0922013093        2.2098769013       -1.3412956609
 C         -4.4011729492        3.5265410914       -0.6342305910
 C         -3.1701995591        4.3227154913       -0.2022679509
 H         -3.5081807491        5.1876001713        0.3729428990
 H         -2.6650376790        4.6942874212       -1.0975726309
 C         -2.1370190893        3.5548098612        0.6192500792
 H         -1.3203301092        4.2434113811        0.8541140792
 H         -1.7038879393        2.7515599511        0.0176549593
 C         -2.6482688995        2.9749748113        1.9368366792
 H         -3.1001051694        3.7681450513        2.5359227391
 H         -1.7814047695        2.5926816612        2.4824318393
 C         -3.6578680996        1.8217001614        1.8077107492
 H         -4.6684478295        2.1948090015        1.6596952291
 H         -3.6480835897        1.2589158714        2.7456912592
 H         -5.0604216093        3.3542580015        0.2113396590
 H         -4.9556277391        4.1405474614       -1.3492254110
 H         -5.0240393793        1.8127206314       -1.7593447509
 H         -3.4319845892        2.4071969612       -2.1923307008
 O         -3.0644246196        0.1401726112       -1.5172579407
 C         -2.4406164397       -1.0505060889       -1.1754700906
 O         -2.1214678897       -1.7429547689       -2.1623802906
 O         -2.4720015199       -0.6153929387        2.4058577893
 C         -1.5602079400       -2.5905930289        0.6575634695
 C         -0.0773427100       -2.3280034491        0.7192515496
 C          0.6489830499       -2.4978113691        1.8912831096
 C          1.9947880699       -2.1747258993        1.9406701397
 C          2.6380863101       -1.6614634194        0.8278757498
 C          1.9188273302       -1.4912538694       -0.3473466103
 C          0.5794986101       -1.8352603792       -0.4008658504
 H          0.0290130502       -1.6922324092       -1.3198391104
 N          2.5548431203       -0.8972275495       -1.4723825203
 S          2.4841635505        0.7888399005       -1.3787197903
 O          1.2164270805        1.2373654707       -0.8439012005
 O          2.8266346307        1.2722842904       -2.6988042403
 C          3.7975743005        1.1606021504       -0.2391559403
 C          3.4938066304        1.5380380005        1.0536976897
 C          4.5318433604        1.7866825004        1.9383472198
 C          5.8458763704        1.6522309102        1.5163493999
 C          6.1335668705        1.2732051801        0.2132916299
 C          5.1008721905        1.0223581402       -0.6758372802
 H          5.2740822505        0.7292603202       -1.6978759601
 H          7.1566413705        1.1709497300       -0.1108057500
 H          6.6507006104        1.8450062301        2.2080033499
 H          4.3099067604        2.0803212305        2.9516876097
 H          2.4566832804        1.6246196306        1.3371950296
 H          2.1135233703       -1.1704489695       -2.3415631603
 H          3.6817798701       -1.3942088295        0.8596767998
 H          2.5449629598       -2.3112459793        2.8587736498
 H          0.1450262198       -2.8638949590        2.7736905896
 H         -1.9158884001       -2.7339629888        1.6899094295
 C         -1.9311306101       -3.8343743689       -0.1364028605
 C         -0.9522310902       -4.6102714690       -0.9618525604
 C         -1.4565465503       -5.1799323889        0.3277590896
 H         -2.1440300004       -6.0112401889        0.2956989696
 H         -0.7727470304       -5.2009567190        1.1628712496
 H         -1.3060681702       -5.0279430290       -1.8921647104
 H          0.0700692599       -4.2679483192       -1.0022657203
 H         -2.9433580701       -3.7818461088       -0.5233104606
