  62
        -98.93737724
 C          2.5844062158        0.3612532303       -0.0628905018
 C          2.1753599821        1.3998537499       -0.9296131926
 C          1.5019887433        2.5525525921       -0.3103400879
 C          1.2976734506        2.5573997154        1.0183121509
 C          0.6796352246        3.6290267569        1.8836620965
 C         -0.5319995989        4.3925569797        1.3396446258
 C         -1.5254709683        3.5408638755        0.5364421736
 H         -1.2951075166        2.4799415798        0.6584360812
 H         -2.5305092738        3.7032895726        0.9318949627
 C         -1.5407975035        3.8909695603       -0.9533645155
 H         -2.4785808324        3.5372526177       -1.3890095833
 H         -1.5169238394        4.9775053756       -1.0646009110
 C         -0.4034108269        3.2785961980       -1.7670854594
 H         -0.5098536199        2.1897245819       -1.7757697576
 H         -0.4982408322        3.6230701252       -2.7999670720
 C          1.0133178980        3.6056553269       -1.2640294616
 H          1.0568964804        4.5995392589       -0.8257461202
 H          1.6936499825        3.5729913278       -2.1195546923
 H         -1.0391459110        4.8246721191        2.2044998460
 H         -0.1939724450        5.2261635573        0.7253978978
 H          0.3985184187        3.1145206998        2.8063516958
 H          1.4661843693        4.3454406773        2.1421161010
 O          1.7084936638        1.5321810419        1.8181094998
 C          2.3080016807        0.3975389076        1.3031969137
 O          2.5605416654       -0.4801832222        2.1520948161
 O          2.3637000712        1.3650583407       -2.1775362343
 C          3.1717511033       -0.9082132103       -0.6611202583
 C          2.1474830565       -1.9973738352       -0.4542273452
 C          2.3921273874       -3.2033110537        0.1875334973
 C          1.3513409048       -4.0764381625        0.4613312367
 C          0.0481643919       -3.7607230203        0.1204026617
 C         -0.1969984375       -2.5735018738       -0.5528776218
 C          0.8467994303       -1.7202356566       -0.8572959676
 H          0.6393912212       -0.7863129354       -1.3655639942
 N         -1.5432771516       -2.1806919366       -0.8288820558
 S         -2.0507177438       -1.1758571927        0.4465224561
 O         -1.3230571117        0.0747112276        0.4230326061
 O         -1.9750254342       -1.9462485661        1.6617588125
 C         -3.7580825418       -0.8927817854        0.0158488328
 C         -4.1499243235        0.3416743182       -0.4636420450
 C         -5.4769875295        0.5325489883       -0.8167008665
 C         -6.3815587207       -0.5103502789       -0.6891510850
 C         -5.9716626666       -1.7452546140       -0.2079079364
 C         -4.6473532603       -1.9419283332        0.1484918157
 H         -4.2825877164       -2.8791844735        0.5341326207
 H         -6.6786134932       -2.5531008047       -0.1093252602
 H         -7.4131510708       -0.3589765318       -0.9650373371
 H         -5.7981918116        1.4920514606       -1.1889072445
 H         -3.4117574735        1.1244654180       -0.5399854928
 H         -1.5802629754       -1.6155150589       -1.6698573069
 H         -0.7759859049       -4.4034016523        0.3822328329
 H          1.5567122307       -5.0027104901        0.9762245569
 H          3.3939567413       -3.4478259291        0.5014033333
 H          3.2649203315       -0.7112640694       -1.7392552473
 C          4.5366466865       -1.2259107818       -0.0952315697
 C          5.4936877714       -2.0702590449       -0.8814972601
 C          5.7471868924       -0.6024220802       -0.7206220147
 H          6.5518307072       -0.2834067411       -0.0756196687
 H          5.5897014583        0.0417091933       -1.5733138502
 H          6.1289940840       -2.7609041374       -0.3482428247
 H          5.1681541942       -2.4249674746       -1.8475993421
 H          4.5267239646       -1.3280133878        0.9837590209
