  62
        -98.94195484
 C          0.0414724100        1.9080087299       -0.6217939795
 C         -0.6920193894        2.1211829499        0.5677877508
 C         -2.1123177293        1.7293686996        0.5412296916
 C         -2.6224214998        1.1603380795       -0.5667489781
 C         -4.0254793099        0.6869645292       -0.8825296574
 C         -5.0436418893        0.4591346991        0.2324308132
 C         -4.7052000786       -0.6759783008        1.1981740530
 H         -5.4531271482       -0.6758013409        1.9941325734
 H         -4.7875920687       -1.6248820908        0.6641697031
 C         -3.3146041783       -0.6205908805        1.8257127223
 H         -3.2158365478       -1.4779543205        2.4963788523
 H         -2.5542384087       -0.7324739104        1.0499730219
 C         -3.0132936781        0.6375326096        2.6376126221
 H         -2.0642548678        0.4746115697        3.1556772916
 H         -3.7870638177        0.7845843995        3.3937350825
 C         -2.8731689187        1.9329103495        1.8192430720
 H         -3.8417090789        2.3859234594        1.6217801625
 H         -2.2917590185        2.6446427897        2.4124912016
 H         -5.2160742092        1.3818393791        0.7786820832
 H         -5.9867767495        0.2034631989       -0.2583464563
 H         -4.4395717804        1.4241819091       -1.5795459472
 H         -3.9016928401       -0.2394843908       -1.4500218574
 O         -1.8678953104        0.9632719996       -1.6883656085
 C         -0.5326487805        1.3181319298       -1.7449956692
 O          0.0249610790        1.0568206298       -2.8310876595
 H          1.2635016106       -0.3766995098       -0.3425447801
 C          1.9667228609        0.0261144103        0.3720443395
 C          2.2398621406        1.3887031003        0.3604315293
 C          3.1485443710        1.8917576605        1.2812574188
 C          3.7534492516        1.0470181507        2.1964620786
 C          3.4847978519       -0.3090710794        2.1983147988
 C          2.5842868215       -0.8249358696        1.2722286093
 N          2.2742725617       -2.1926935396        1.2446827595
 S          2.0429631411       -2.9700492497       -0.2205209404
 O          2.3385831314       -4.3588129997        0.0654808995
 O          2.8221639304       -2.3604304496       -1.2721699508
 C          0.3007058109       -2.8359694400       -0.5590643195
 C         -0.5795376186       -3.4079550801        0.3390930310
 C         -1.9352696387       -3.3796323504        0.0587734517
 C         -2.3864871694       -2.7847253905       -1.1102585481
 C         -1.4922914600       -2.2086963804       -1.9981923286
 C         -0.1338484499       -2.2356297001       -1.7231200093
 H          0.5858570297       -1.7895793201       -2.3928950197
 H         -1.8357155206       -1.7287490005       -2.9012202084
 H         -3.4419704296       -2.7739345707       -1.3335741175
 H         -2.6362442183       -3.8219481705        0.7480526921
 H         -0.1879457280       -3.8719783800        1.2288303008
 H          2.8003359221       -2.7624587095        1.8912861992
 H          3.9622736723       -0.9655211593        2.9098574185
 H          4.4504287519        1.4509387108        2.9151164682
 H          3.3773654208        2.9446745206        1.2896237387
 C          1.5226649099        2.2351871602       -0.6647976703
 H          1.8762351495        1.9260425302       -1.6601312105
 C          1.7540119198        3.7222428602       -0.5034379705
 C          2.9730527994        4.3626114104       -1.0940697512
 C          1.6267664190        4.6087601302       -1.7042777105
 H          1.1735052989        5.5810205001       -1.5823886703
 H          1.3972407486        4.1355023501       -2.6482515503
 H          3.4450961595        5.1702746805       -0.5552379715
 H          3.6625412992        3.7265623205       -1.6288620215
 H          1.3803845102        4.1017611602        0.4402877097
 O         -0.1912396889        2.6209689800        1.6087155806
