  62
        -98.93856105
 C          1.7582079000        0.1126316694        0.0850125106
 C          2.8490550701        0.5828847755       -0.6882791255
 C          4.1188814801       -0.1431109760       -0.5111330212
 C          4.1718440399       -1.2019528226        0.3152995604
 C          5.4080943798       -1.9972757350        0.6179325642
 C          6.1468009197       -1.4323472449        1.8393613788
 C          6.3688716598        0.0791008656        1.7821166209
 H          5.4009386998        0.5829978552        1.8328233848
 H          6.9246486197        0.3601173184        2.6793524132
 C          7.1270595600        0.5626327755        0.5380284749
 H          7.6493671400       -0.2749056008        0.0742552683
 H          7.8848302600        1.2849177730        0.8490130408
 C          6.2528075101        1.2565382439       -0.5081875097
 H          5.6583389001        2.0380470601       -0.0284258835
 H          6.9117060903        1.7443794996       -1.2313876357
 C          5.3039360602        0.3451024703       -1.2966247371
 H          4.8934126103        0.9306413869       -2.1244339325
 H          5.8625376502       -0.4952108664       -1.7136736837
 H          7.1088312096       -1.9406295856        1.9265196849
 H          5.5605807695       -1.6588371320        2.7330793669
 H          5.1110503797       -3.0263240767        0.8276693059
 H          6.0621499499       -1.9886527481       -0.2518380256
 O          3.0968389898       -1.6437858881        1.0180545667
 C          1.8790386598       -0.9917702874        0.9331807218
 O          0.9884734497       -1.4796005931        1.6596872677
 H         -2.1289100600       -0.1734168515        0.2311994978
 C         -1.7642989399       -0.2116545735       -0.7827703925
 C         -0.4686185298        0.2023526387       -1.0557025390
 C          0.0032111003        0.1118444791       -2.3612657997
 C         -0.8090652296       -0.3887153429       -3.3624598338
 C         -2.1011851996       -0.7996258450       -3.0863128273
 C         -2.5853148698       -0.7087104254       -1.7858575966
 N         -3.9068216899       -1.0610059576       -1.4949343096
 S         -4.4098942501       -1.5234412998        0.0276416867
 O         -3.4716616802       -2.4178508949        0.6635406896
 O         -5.7396976701       -2.0505129180       -0.1927610477
 C         -4.5262021601        0.0108316831        0.9232567289
 C         -5.2186456200        1.0573016477        0.3466581072
 C         -5.3081670900        2.2581832222        1.0320909368
 C         -4.7096884902        2.3907852323        2.2760165679
 C         -4.0230748903        1.3286847577        2.8440217695
 C         -3.9292501703        0.1249665231        2.1631908699
 H         -3.3902038404       -0.7210481901        2.5618622432
 H         -3.5549876404        1.4322364199        3.8099348704
 H         -4.7758205602        3.3274556280        2.8065334954
 H         -5.8397963999        3.0873842458        0.5940362533
 H         -5.6700135399        0.9160440055       -0.6210733340
 H         -4.4179610498       -1.5122257817       -2.2380379333
 H         -2.7324899895       -1.1879211687       -3.8708015704
 H         -0.4318693594       -0.4587766148       -4.3716895043
 H          1.0055826504        0.4438898908       -2.5832076369
 C          0.3818007600        0.7558949497        0.0591591155
 H         -0.0899940501        0.4519378921        1.0075252930
 C          0.4328805501        2.2790864397        0.0526237377
 C          0.0125052403        3.1173765591       -1.1129466157
 C         -0.8440854198        3.0647863093        0.1140912638
 H         -0.8871117399        3.9312697642        0.7560630207
 H         -1.7695312999        2.5102429198        0.0568411592
 H         -0.3360018096        2.6163951562       -2.0018152297
 H          0.5824568804        4.0114773807       -1.3141060284
 H          1.2645575901        2.6555889750        0.6394511108
 O          2.7892058703        1.5507206219       -1.4878362978
