  62
        -98.94200799
 C         -0.6723323745       -1.3606596417        0.0158435071
 C         -1.4236977973       -0.7488366439        1.0435764606
 C         -2.4555514491        0.2183968209        0.6248194688
 C         -2.6251755230        0.4711980259       -0.6867217517
 C         -3.6369142039        1.3251876361       -1.4241594816
 C         -4.7455384619        2.0477302752       -0.6643600160
 C         -5.8623604360        1.1319257939       -0.1594772293
 H         -6.5134376764        1.7088120375        0.5005496882
 H         -6.4586315838        0.8138942792       -1.0183818235
 C         -5.4056570173       -0.1295032868        0.5693273103
 H         -4.7766151653       -0.7300724359       -0.0903699662
 H         -6.2937744285       -0.7245374437        0.7988102030
 C         -4.6586697111        0.1101489862        1.8786171401
 H         -4.4933474947       -0.8617697569        2.3518662331
 H         -5.2759868803        0.7081044655        2.5524151165
 C         -3.2908751463        0.7940203668        1.7332433190
 H         -3.4019996885        1.8693336368        1.6174518413
 H         -2.7294728663        0.6220251748        2.6568897891
 H         -4.3261187953        2.6323183169        0.1492892363
 H         -5.1964769261        2.7576675153       -1.3627270307
 H         -3.0542672247        2.0632378503       -1.9820342366
 H         -4.0909497285        0.6689238705       -2.1740847178
 O         -1.8064753359       -0.0737650388       -1.6340563145
 C         -0.8208400060       -0.9928803764       -1.3197523604
 O         -0.1682997351       -1.4006363311       -2.2976300550
 O         -1.2572038714       -1.0125030350        2.2658709456
 C          0.3168412244       -2.4551706321        0.3730380814
 C          1.7099503328       -2.0727408438       -0.0552452707
 C          2.4929830987       -2.8422616944       -0.9053359783
 C          3.7637793634       -2.4216620759       -1.2568327220
 C          4.2778925394       -1.2345757276       -0.7703331532
 C          3.5058153175       -0.4629932499        0.0923214736
 C          2.2341547152       -0.8857628344        0.4433503270
 H          1.6433032773       -0.2894998411        1.1242261274
 N          4.0109301034        0.7330837521        0.6184965032
 S          3.0096700296        1.9569904969        1.1262596079
 O          3.8615990967        3.1285262109        1.1320293214
 O          2.4071818633        1.6243799361        2.3929834328
 C          1.7493267364        2.1706666404       -0.1185666139
 C          2.0680010180        2.0306636481       -1.4542734172
 C          1.0959492051        2.2927615167       -2.4055287180
 C         -0.1642214289        2.7103244017       -2.0094351040
 C         -0.4694454451        2.8476248849       -0.6646921419
 C          0.4928717393        2.5667947226        0.2910131329
 H          0.2903652093        2.6424009585        1.3479186997
 H         -1.4496920643        3.1708974752       -0.3532245028
 H         -0.9109679338        2.9268916681       -2.7572216123
 H          1.3241387770        2.1721185529       -3.4521600553
 H          3.0577863458        1.7174002728       -1.7435224882
 H          4.8714214958        1.0682883963        0.2129720419
 H          5.2680889369       -0.9063632352       -1.0464710300
 H          4.3607300113       -3.0255302200       -1.9230791046
 H          2.1078056613       -3.7678146053       -1.2990058337
 H          0.3057351280       -2.5103359417        1.4718229493
 C         -0.1548355337       -3.7812818631       -0.1870794431
 C          0.2643492678       -5.0644317687        0.4637136961
 C         -1.1494403365       -4.5850632945        0.5934055181
 H         -1.9251136331       -5.1095328168        0.0557025988
 H         -1.4718059616       -4.1870187482        1.5446940260
 H          0.4578951902       -5.9223963670       -0.1620780815
 H          0.9034114044       -4.9977610730        1.3311818620
 H         -0.2655219797       -3.7643511443       -1.2655855081
