  62
        -98.93746773
 C         -2.4083837642       -1.1366000097       -0.0119181270
 C         -3.3792741234       -0.6198302452        0.8838016685
 C         -4.3597217411        0.3431653089        0.3487935281
 C         -4.2936058020        0.6705675254       -0.9547563133
 C         -5.1493614330        1.6448541373       -1.7196972433
 C         -4.7862722991        3.1098227283       -1.4283768711
 C         -4.5580090414        3.4344301436        0.0455539588
 H         -3.7605140838        2.7980657702        0.4336087082
 H         -4.2064149207        4.4677228167        0.1068046417
 C         -5.7901045287        3.3069812260        0.9382443294
 H         -5.5062583620        3.6577804877        1.9337128872
 H         -6.5737776593        3.9695406748        0.5641416747
 C         -6.3709785621        1.8984102027        1.0805525889
 H         -6.9530540103        1.6226229412        0.2052951871
 H         -7.0686906865        1.9182350575        1.9228331615
 C         -5.3436523515        0.8147265100        1.3921703150
 H         -4.7440070012        1.1252287602        2.2553240734
 H         -5.8755843479       -0.0859423938        1.7217408264
 H         -3.8643213978        3.3425579586       -1.9669146404
 H         -5.5785955543        3.7464634260       -1.8257282475
 H         -4.9762088005        1.4479594346       -2.7800790937
 H         -6.1996715419        1.4583183139       -1.5162379618
 O         -3.3485849863        0.1444267154       -1.7829594360
 C         -2.3913446876       -0.7553803471       -1.3526260820
 O         -1.6135310793       -1.1198011638       -2.2594008376
 H          0.3225338012       -1.0194899513       -1.1982326558
 C          0.6981467788       -0.9800765370       -0.1863185762
 C         -0.0751851437       -1.4925140214        0.8456050499
 C          0.4200823354       -1.4256936960        2.1427277617
 C          1.6566630135       -0.8585221594        2.3964222583
 C          2.4210635758       -0.3424268613        1.3655244443
 C          1.9343627592       -0.4018851887        0.0660642015
 N          2.6861156868        0.1458772932       -0.9870701704
 S          4.3084218136       -0.2605916446       -1.1145307324
 O          4.6434744863       -0.0618585868       -2.5076648097
 O          4.5717931936       -1.5733220296       -0.5716485002
 C          5.1347507174        0.9794017677       -0.1390974238
 C          4.8781505865        2.3066835047       -0.4221247293
 C          5.5200585757        3.2852486813        0.3197854066
 C          6.4051061878        2.9223496416        1.3242595025
 C          6.6548475984        1.5855151463        1.5937237981
 C          6.0150895799        0.6015677763        0.8557754402
 H          6.1734564754       -0.4501975078        1.0335185258
 H          7.3433483918        1.3056192520        2.3747719419
 H          6.9029986991        3.6863652767        1.9002045444
 H          5.3279903007        4.3258605210        0.1131485906
 H          4.1856655590        2.5461961987       -1.2119355716
 H          2.2247259823        0.0817786845       -1.8832021304
 H          3.3841647950        0.1018853686        1.5566781819
 H          2.0287153628       -0.8146183072        3.4085739678
 H         -0.1769295303       -1.8137352865        2.9551125113
 C         -1.4143175734       -2.1317311995        0.5624709982
 H         -1.8454425239       -2.4389764767        1.5247603043
 C         -1.2422038747       -3.3676744569       -0.2999602959
 C         -0.7108766837       -4.6212855145        0.3249369072
 C         -2.1485263990       -4.5418078607       -0.0913069891
 H         -2.4701444479       -5.1036551960       -0.9553718629
 H         -2.8991535268       -4.4619616121        0.6815014511
 H         -0.4868547779       -4.5970922835        1.3806175831
 H         -0.0396906840       -5.2390370927       -0.2519166811
 H         -0.9432805382       -3.1463504496       -1.3164888904
 O         -3.4311569385       -0.9523352609        2.0984577195
