  62
        -98.93817103
 C         -2.5533519494       -1.0918603607        0.2531890988
 C         -2.5510854395       -0.1431692908       -0.7964493812
 C         -3.0851572897        1.1924784492       -0.4754733714
 C         -3.5609055599        1.4446429692        0.7549545586
 C         -4.1848284302        2.7113934091        1.2846680384
 C         -3.5174973603        4.0429883992        0.9143132284
 C         -1.9891929803        3.9892619594        0.7716979886
 H         -1.5486801205        4.7939598595        1.3634298986
 H         -1.6020419402        3.0478363295        1.1665657987
 C         -1.5139592201        4.1590357994       -0.6732334813
 H         -2.0895001502        4.9598715093       -1.1435766914
 H         -0.4650851502        4.4662000296       -0.6631261712
 C         -1.5986625598        2.9028285694       -1.5385368913
 H         -0.8570114198        2.1755520595       -1.1915261511
 H         -1.3180591497        3.1776801093       -2.5588924412
 C         -2.9748576197        2.2153171291       -1.5689527414
 H         -3.7787917398        2.9457145490       -1.5214925316
 H         -3.0581375695        1.6657427791       -2.5104551214
 H         -3.9456244903        4.4215324091       -0.0128134716
 H         -3.7831639205        4.7554218392        1.6970882384
 H         -5.2299719201        2.7348947489        0.9625725183
 H         -4.1849972603        2.5929469492        2.3708076684
 O         -3.5714766099        0.4937771392        1.7308608686
 C         -3.0518605797       -0.7684792107        1.5187569187
 O         -3.1001006897       -1.5133549007        2.5180203088
 H         -0.2186462992       -1.2947522004       -1.5594232409
 C          0.2802579208       -1.7091664403       -0.6959381108
 C         -0.4611349492       -2.3867604904        0.2617734492
 C          0.1994310207       -2.8875191102        1.3775142193
 C          1.5628834306       -2.7043090600        1.5316353294
 C          2.2909638007       -1.9993176599        0.5889535395
 C          1.6370787507       -1.4930705801       -0.5257084006
 N          2.3578769607       -0.7023520200       -1.4563666106
 S          2.6609353504        0.8479455701       -0.8591468306
 O          1.6197278902        1.2784948099        0.0474428092
 O          2.8903909004        1.6820092600       -2.0189737006
 C          4.1922811503        0.6339213403        0.0223346496
 C          5.3079473805        0.2579398205       -0.7004999102
 C          6.5063804204        0.0697258307       -0.0311163600
 C          6.5683142202        0.2607931808        1.3415308199
 C          5.4397156300        0.6400583906        2.0520587598
 C          4.2371202001        0.8288214104        1.3883422396
 H          3.3316667000        1.1162291903        1.8987392095
 H          5.4895147799        0.7872941707        3.1189781198
 H          7.5017329402        0.1128272210        1.8612869201
 H          7.3862284905       -0.2255716892       -0.5796292699
 H          5.2135745006        0.1248949804       -1.7652423502
 H          1.8616568708       -0.6079049701       -2.3334654706
 H          3.3489624006       -1.8335125298        0.7124899796
 H          2.0610882406       -3.1009457199        2.4030335095
 H         -0.3702538593       -3.4006562303        2.1388207492
 C         -1.9614723292       -2.4898940206        0.1267908690
 H         -2.3411719292       -3.0530782506        0.9895316390
 C         -2.3728469189       -3.2142617407       -1.1387662710
 C         -2.2658020487       -4.7079015507       -1.1840510810
 C         -3.6131197888       -4.0539185309       -1.1299461512
 H         -4.2316072487       -4.0662357411       -2.0147584512
 H         -4.1715545189       -4.1098532510       -0.2067329712
 H         -1.9116131987       -5.2105690506       -0.2968401509
 H         -1.9569476385       -5.1735045207       -2.1072511209
 H         -2.1549740889       -2.6641035508       -2.0441938510
 O         -2.1371819893       -0.3724450007       -1.9658066112
