  62
        -98.93753087
 C          1.8368620277       -0.4171687956        0.5791710582
 C          2.8859682034       -1.2517427053        0.1264471306
 C          4.2406649640       -0.6844620182        0.1933604851
 C          4.4051760372        0.5594683381        0.6793935818
 C          5.7080061007        1.3052821690        0.7397312692
 C          6.0705727588        1.8457511959       -0.6583408495
 C          7.3301927761        1.2278206733       -1.2656944835
 H          7.3625876551        1.5190679138       -2.3177338945
 H          8.2072064171        1.6583742995       -0.7778147290
 C          7.4402373603       -0.2967373573       -1.1663834725
 H          7.7762466204       -0.5760167231       -0.1667008985
 H          8.2288604996       -0.6039144175       -1.8565783848
 C          6.1650548940       -1.0843639383       -1.4935585458
 H          5.5089012216       -0.5018693125       -2.1405941839
 H          6.4519399044       -1.9773439079       -2.0525951478
 C          5.3733215664       -1.5628335444       -0.2620991401
 H          4.9036793023       -2.5217314502       -0.5004908525
 H          6.0612779420       -1.7327049989        0.5706982606
 H          5.2213089447        1.6727129888       -1.3226961397
 H          6.2110607055        2.9264243057       -0.6053206185
 H          6.4911482486        0.6483773600        1.1117390486
 H          5.5784718056        2.1279418456        1.4432405553
 O          3.3717118981        1.3287143452        1.1107287410
 C          2.0635084653        0.8675682927        1.0712781895
 O          1.2204328443        1.6801521400        1.4951443173
 O          2.6966888425       -2.4168714011       -0.3160656728
 C          0.4127850935       -0.9443191622        0.5362905616
 C         -0.4342383731       -0.0410630001       -0.3241071374
 C         -0.0348157761        0.1826463317       -1.6405605186
 C         -0.7494646147        1.0299719954       -2.4629606880
 C         -1.8872310228        1.6648147665       -1.9946444459
 C         -2.2991985863        1.4439651338       -0.6869897601
 C         -1.5782943938        0.5886304831        0.1377187631
 H         -1.9132315735        0.4530892565        1.1517723811
 N         -3.4424609111        2.0858610242       -0.1841337243
 S         -4.5704443559        1.2243007687        0.6976012217
 O         -5.7558532702        2.0526938740        0.6763372425
 O         -4.0504542675        0.8911020909        1.9984912498
 C         -4.8408627066       -0.2512960190       -0.2661986928
 C         -5.6399005396       -0.1583256343       -1.3894115808
 C         -5.8050575574       -1.2768112129       -2.1894492684
 C         -5.1644827158       -2.4616646371       -1.8589678359
 C         -4.3672149800       -2.5385722401       -0.7277849066
 C         -4.2006833688       -1.4236614318        0.0788290397
 H         -3.5913081140       -1.4455475237        0.9668598153
 H         -3.8716337294       -3.4611656566       -0.4706246383
 H         -5.2887418125       -3.3312395200       -2.4848574030
 H         -6.4284348080       -1.2218509639       -3.0672851971
 H         -6.1286736362        0.7779608710       -1.6051344213
 H         -3.8962361799        2.7027107758       -0.8419424392
 H         -2.4433081828        2.3356641188       -2.6317392748
 H         -0.4219064451        1.1985588247       -3.4777094282
 H          0.8562310757       -0.3111554111       -2.0037550546
 H          0.4823764996       -1.9253921017        0.0438582948
 C         -0.1180605740       -1.1428358192        1.9394397377
 C         -1.1397291887       -2.2034342862        2.2156699385
 C          0.2704829885       -2.3793127982        2.6914471698
 H          0.4763177849       -2.2964921181        3.7481184204
 H          0.8978472434       -3.0938688924        2.1788288550
 H         -1.9081551035       -1.9995179651        2.9469796108
 H         -1.4645030765       -2.8097148193        1.3834727651
 H         -0.1750148811       -0.2184957570        2.5038607714
