  62
        -98.93870350
 C         -1.4102871649       -1.5794278818       -0.0788166181
 C         -1.4680024422       -0.1956971143        0.2141603748
 C         -2.8039530512        0.3415169293        0.5197536074
 C         -3.8610060395       -0.4907098301        0.5224786445
 C         -5.2912181274       -0.0801956786        0.7318890332
 C         -5.8454886731        0.5695664107       -0.5521726586
 C         -6.1965583756        2.0507632580       -0.4094326220
 H         -6.3688066203        2.4436427490       -1.4138209712
 H         -7.1337783903        2.1413456981        0.1438853784
 C         -5.1512307614        2.9211956435        0.2946559535
 H         -5.4139126158        3.9609253643        0.0877772180
 H         -5.2323946577        2.7894332967        1.3746293204
 C         -3.6924815234        2.6886956077       -0.1199817614
 H         -3.1943243507        3.6594226800       -0.1571675976
 H         -3.6408637655        2.2649475115       -1.1229648577
 C         -2.8844895419        1.8063370228        0.8495001082
 H         -1.8438303515        2.1445625646        0.8489907011
 H         -3.2717147214        1.9312532468        1.8644184121
 H         -5.1059083695        0.4440656402       -1.3456843067
 H         -6.7416316644        0.0357537938       -0.8723883751
 H         -5.8560243373       -0.9800606308        0.9763969134
 H         -5.3567909272        0.6104928647        1.5697219327
 O         -3.7590710287       -1.8197892503        0.2546948143
 C         -2.5369492006       -2.3981586839       -0.0513475249
 O         -2.5851778480       -3.6263870823       -0.2672166173
 H          2.4508696998       -1.0901568486       -0.6465738403
 C          2.1551321694       -1.2902806243        0.3685096907
 C          0.9321311366       -1.8778542947        0.6468791304
 C          0.6133890066       -2.1583891445        1.9735580081
 C          1.4863449589       -1.8336022374        2.9929947547
 C          2.6891386344       -1.2073861364        2.7146080416
 C          3.0221787454       -0.9364503877        1.3935373731
 N          4.2355789131       -0.3130200696        1.0769265400
 S          4.3878023623        0.6517479322       -0.2757030308
 O          4.4961567145       -0.1685269692       -1.4572013935
 O          5.5416796906        1.4779645026        0.0151626935
 C          2.9314239285        1.6765828536       -0.3687816914
 C          2.5797118422        2.4320212230        0.7306950377
 C          1.4701505703        3.2558132569        0.6489305162
 C          0.7371720576        3.3131131914       -0.5250324116
 C          1.1049424986        2.5513128812       -1.6211772313
 C          2.2120927776        1.7236769028       -1.5442477822
 H          2.5281591346        1.1079362630       -2.3721390842
 H          0.5257000042        2.5899038692       -2.5304479189
 H         -0.1319056743        3.9495942721       -0.5853212443
 H          1.1743655185        3.8437992466        1.5032107568
 H          3.1700793202        2.3699633398        1.6307775245
 H          4.7595601039        0.0420722426        1.8623232558
 H          3.3637303977       -0.9339860872        3.5113970910
 H          1.2235753777       -2.0556597841        4.0164747583
 H         -0.3373173043       -2.6257620117        2.1935258719
 C         -0.0729004034       -2.2068251078       -0.4291414703
 H         -0.2320010230       -3.2947077914       -0.4424804346
 C          0.3582877563       -1.7546398211       -1.8088419826
 C          1.2863299854       -2.6001806438       -2.6264599986
 C         -0.1560519706       -2.4780055505       -3.0151643788
 H         -0.4077112869       -1.9030890662       -3.8937792324
 H         -0.8060995715       -3.3244089783       -2.8466042941
 H          2.0327210441       -2.1101863153       -3.2341587668
 H          1.6187124482       -3.5337901500       -2.1980332511
 H          0.4570144931       -0.6767073313       -1.8769508529
 O         -0.4577476245        0.5517006025        0.2236699509
