  62
        -98.94407916
 C         -1.4667290816       -1.1707060324       -0.0020976667
 C         -2.5301441073       -0.7585236564        0.8297885567
 C         -3.1031398838        0.5700783898        0.5580879337
 C         -2.5919730417        1.3189394605       -0.4374430273
 C         -2.9244690015        2.7242517589       -0.8941585527
 C         -4.2224046506        3.4029294820       -0.4632958566
 C         -5.4955278310        2.7626626608       -1.0153056125
 H         -6.3527120549        3.2739389249       -0.5718116987
 H         -5.5292424308        2.9300372661       -2.0946686695
 C         -5.6342333585        1.2614126238       -0.7758692204
 H         -6.5855546479        0.9404390350       -1.2085746424
 H         -4.8424478419        0.7306298720       -1.3082555021
 C         -5.6210974927        0.8297247034        0.6893193245
 H         -5.8977471772       -0.2273679867        0.7227594782
 H         -6.3750424298        1.3903552319        1.2451383269
 C         -4.2698923347        0.9751932175        1.4123574375
 H         -4.2706934864        0.2967521850        2.2707995202
 H         -4.1300370445        1.9832081320        1.7968092289
 H         -4.1761238319        4.4276499299       -0.8422272666
 H         -4.2693273542        3.4713523993        0.6196505475
 H         -2.0815649427        3.3424962306       -0.5634379125
 H         -2.8792239846        2.7002378413       -1.9877192754
 O         -1.5622178052        0.8776760328       -1.2156691110
 C         -0.9676403328       -0.3533428787       -1.0133854249
 O         -0.0292476646       -0.6075508890       -1.7938535353
 O         -2.9767403602       -1.4668238953        1.7745135464
 C         -0.8070432881       -2.5146136322        0.2403823600
 C          0.6750178037       -2.3406044302        0.4653140983
 C          1.6248530901       -3.2356164755       -0.0126407560
 C          2.9733057219       -3.0192094529        0.2135604562
 C          3.4049662118       -1.8975463947        0.8974717973
 C          2.4622014918       -1.0013786697        1.3864200571
 C          1.1123365312       -1.2418319638        1.1940462519
 H          0.3962051451       -0.5327547225        1.5837387891
 N          2.8435386224        0.1793065604        2.0623027066
 S          2.5113789682        1.6128778757        1.2539267900
 O          3.0831369119        2.6533241215        2.0830937853
 O          1.0998208255        1.7140301149        0.9890738533
 C          3.4550836463        1.4740708377       -0.2538210247
 C          2.9483386672        0.7462015112       -1.3116033728
 C          3.7423042249        0.5696761649       -2.4354992703
 C          5.0157077476        1.1148859287       -2.4820805395
 C          5.5078802816        1.8448936538       -1.4102186169
 C          4.7241580501        2.0215631444       -0.2821129102
 H          5.0617303264        2.5822878518        0.5747302753
 H          6.4972603921        2.2714975102       -1.4487516033
 H          5.6264754549        0.9703782540       -3.3593073200
 H          3.3515029546        0.0013483925       -3.2642604154
 H          1.9515370020        0.3347554820       -1.2611365988
 H          3.8154608583        0.1853940240        2.3430270058
 H          4.4575551074       -1.7125754357        1.0508588955
 H          3.6979560168       -3.7236168902       -0.1649326896
 H          1.3079827266       -4.1026896441       -0.5688463535
 H         -1.2561659707       -2.9001217331        1.1684859053
 C         -1.1308532329       -3.4701685550       -0.8908421627
 C         -1.2702179598       -4.9399513577       -0.6314024628
 C         -2.4840432684       -4.1127563894       -0.9262499688
 H         -2.9743737640       -4.2319485247       -1.8807424111
 H         -3.1594174220       -3.8835378736       -0.1148222742
 H         -0.9291653178       -5.6313726956       -1.3871934359
 H         -1.1290624416       -5.2852599714        0.3815936763
 H         -0.7028778774       -3.1523709286       -1.8352595687
