  62
        -98.94842522
 C         -0.7817787693       -1.2271050263        0.0794096856
 C         -1.5232931255       -0.6570321188        1.1405252811
 C         -2.4044340646        0.4605884102        0.7781254060
 C         -2.4410119728        0.8817597542       -0.4995978630
 C         -3.3950282661        1.9109777386       -1.0322142602
 C         -4.6941160038        1.2537556418       -1.5220040445
 C         -5.3203198985        0.2863892110       -0.5176654799
 H         -6.2452203585       -0.0890375642       -0.9608344153
 H         -4.6568619901       -0.5712310191       -0.3848203410
 C         -5.6258628618        0.9049827416        0.8536005407
 H         -6.6252863850        0.5937730618        1.1648747037
 H         -5.6351496338        1.9928171071        0.7767895949
 C         -4.6628638404        0.4845476496        1.9653205102
 H         -5.0832157644        0.8066253358        2.9219378017
 H         -4.5868903638       -0.6054836168        1.9926348356
 C         -3.2446570592        1.0615872702        1.8694447728
 H         -3.2953780524        2.1472342934        1.7644359803
 H         -2.7287268666        0.8321533919        2.8068504337
 H         -4.4770879525        0.7004244504       -2.4383539750
 H         -5.4094633735        2.0424509899       -1.7620361959
 H         -3.6176929984        2.6357551270       -0.2517128927
 H         -2.9235706946        2.4204710626       -1.8727077823
 O         -1.6527925179        0.3620146718       -1.4734675727
 C         -0.8021964210       -0.7013321105       -1.2123800723
 O         -0.1363981290       -1.0800930890       -2.1931661626
 H          1.5550609680       -0.3858138750        1.0940449369
 C          2.1153849184       -1.0562134153        0.4576652919
 C          1.5051771244       -2.2058416748       -0.0295760225
 C          2.2493186194       -3.0701597510       -0.8219668840
 C          3.5658256445       -2.7765775185       -1.1316807797
 C          4.1647817491       -1.6234825580       -0.6609035856
 C          3.4316384888       -0.7586152574        0.1454297087
 N          4.0200789943        0.4072897365        0.6521405998
 S          3.1234169580        1.7219583944        1.1227607382
 O          4.0857123613        2.8040223744        1.1670249960
 O          2.4415292110        1.4507349699        2.3643734819
 C          1.9354337035        2.0724887250       -0.1619420600
 C          2.2204099279        1.7957796489       -1.4834615062
 C          1.3110290631        2.1748254405       -2.4577149924
 C          0.1504824296        2.8409635049       -2.1001547921
 C         -0.1205222855        3.1153207976       -0.7690037921
 C          0.7750045803        2.7203433586        0.2103949921
 H          0.5941104133        2.8971974941        1.2590979797
 H         -1.0239036127        3.6322612474       -0.4882084016
 H         -0.5481315611        3.1424009317       -2.8646526328
 H          1.5106355152        1.9463662938       -3.4920608661
 H          3.1310380312        1.2829672033       -1.7467800768
 H          4.9178658386        0.6577175042        0.2670190056
 H          5.1894532618       -1.3915269236       -0.9073833309
 H          4.1316365509       -3.4528393434       -1.7541087973
 H          1.7983237582       -3.9710627023       -1.2032639973
 C          0.0683109837       -2.4546513747        0.3501134605
 H          0.0264085730       -2.6054491152        1.4395462660
 C         -0.5423863428       -3.6616636291       -0.3328999392
 C         -0.3495606179       -5.0337427613        0.2382381736
 C         -1.6874148619       -4.3651526963        0.3295922442
 H         -2.4936850680       -4.7336600851       -0.2868668463
 H         -2.0095449052       -3.9900094149        1.2902809385
 H          0.2351955925       -5.1209685157        1.1414500636
 H         -0.2399861427       -5.8655336364       -0.4411091159
 H         -0.5799120001       -3.5542492795       -1.4113886318
 O         -1.4666206857       -1.0756811683        2.3293652292
