  62
        -98.94626404
 C         -1.8048432209       -1.0636055447       -0.3105571154
 C         -3.1602966310       -1.3058401395        0.0178202872
 C         -4.1117684284       -0.2679069211       -0.3941763242
 C         -3.6712166535        0.8157860673       -1.0592221810
 C         -4.5215076296        1.9495537461       -1.5649230394
 C         -4.8223231891        3.0230864140       -0.5097994672
 C         -5.8205077271        2.6102056254        0.5726094669
 H         -6.1026612915        3.5172774303        1.1108243300
 H         -6.7226581605        2.2171448979        0.1028635944
 C         -5.2753425790        1.5884796834        1.5802867300
 H         -4.1846538399        1.5660401079        1.5219501489
 H         -5.5351576672        1.9020921169        2.5938724723
 C         -5.8099720881        0.1682662052        1.3952281848
 H         -6.8861241093        0.1542566180        1.5815577613
 H         -5.3322813592       -0.4777622332        2.1363593089
 C         -5.5471169422       -0.4293279633        0.0066125499
 H         -5.7625969572       -1.4998865290        0.0473553295
 H         -6.2031976971        0.0312709599       -0.7316325721
 H         -3.8827352718        3.3261191504       -0.0422388235
 H         -5.2275981067        3.8910087376       -1.0349913054
 H         -3.9646439257        2.4151938406       -2.3808529878
 H         -5.4572530820        1.5566888936       -1.9634531686
 O         -2.3614038541        1.0013960729       -1.3733103382
 C         -1.3954592431        0.0806732252       -0.9935611271
 O         -0.2352474431        0.3916844225       -1.3217300059
 O         -3.5536448535       -2.3361660565        0.6273156750
 C         -0.7564361718       -2.0842857137        0.0929535414
 C          0.2858295532       -1.4349188837        0.9685597723
 C         -0.1306414055       -0.7560680613        2.1121973799
 C          0.7842938657       -0.1419901152        2.9441159451
 C          2.1366094496       -0.1844799345        2.6495766193
 C          2.5637721698       -0.8635664587        1.5161159549
 C          1.6416023240       -1.4931557736        0.6891097711
 H          2.0048473152       -2.0073361860       -0.1841923980
 N          3.9340557856       -0.9502912506        1.2051818017
 S          4.4903174308       -0.4312644752       -0.2866576640
 O          3.8589824693       -1.1847850227       -1.3376063960
 O          5.9301647931       -0.5437372346       -0.1959318233
 C          4.0386507427        1.2929130090       -0.3644457403
 C          2.7380379934        1.6453955296       -0.6638237340
 C          2.3970134836        2.9897363269       -0.6554601607
 C          3.3490345866        3.9498410598       -0.3509268643
 C          4.6510444437        3.5769501107       -0.0517433056
 C          4.9994668755        2.2365621572       -0.0531504976
 H          5.9994628116        1.9001417190        0.1687295360
 H          5.3916244624        4.3245254083        0.1830924485
 H          3.0740098471        4.9929133561       -0.3483373570
 H          1.3810898123        3.2667029519       -0.8891380910
 H          2.0038586544        0.8918652336       -0.9023702316
 H          4.5369722036       -0.5821162021        1.9281257122
 H          2.8544086002        0.2996684812        3.2944106238
 H          0.4443782157        0.3794221674        3.8261409691
 H         -1.1879639835       -0.7179527355        2.3375082544
 H         -1.2938195033       -2.8319275828        0.6954911128
 C         -0.1845231816       -2.7702116947       -1.1293474188
 C          0.3711273911       -4.1576709214       -1.0207917445
 C         -0.9277226894       -3.9236038264       -1.7305338514
 H         -0.9538478899       -4.0161962387       -2.8059918709
 H         -1.8408446067       -4.2327838955       -1.2429402900
 H          1.2419679163       -4.4088292379       -1.6077481509
 H          0.3412512160       -4.6332149040       -0.0520009761
 H          0.3017727907       -2.0810182838       -1.8117190223
