  62
        -98.94557617
 C         -1.9688062173       -1.5161566543       -0.0984604832
 C         -1.6892550227       -0.2684134908       -0.7073924420
 C         -2.8153325277        0.6756666813       -0.7658803744
 C         -4.0167143127        0.3012176436       -0.2895880084
 C         -5.2329256529        1.1795008722       -0.2437831488
 C         -5.3213687755        1.9334045646        1.0905157464
 C         -4.0225013625        2.6339385671        1.4894677691
 H         -4.2115035974        3.1585686492        2.4286259964
 H         -3.2577186664        1.8802888648        1.6910744728
 C         -3.4920681821        3.6265566192        0.4458672332
 H         -3.1866134114        4.5413698880        0.9581623465
 H         -4.2899310383        3.8957287190       -0.2472903521
 C         -2.2784852305        3.1314770361       -0.3433740856
 H         -1.5125204930        2.7713335112        0.3477097274
 H         -1.8619613967        3.9848860234       -0.8844819326
 C         -2.5516979041        2.0258422144       -1.3706412900
 H         -3.3737084070        2.3235626015       -2.0247522608
 H         -1.6500707555        1.9059359828       -1.9781592140
 H         -6.1265348756        2.6671214407        1.0202797134
 H         -5.5810390114        1.2192160161        1.8755246570
 H         -5.1972794682        1.8857821786       -1.0708126663
 H         -6.1171196044        0.5493434797       -0.3540650530
 O         -4.2521850095       -0.9194838322        0.2575262679
 C         -3.2328544034       -1.8484813776        0.3867947972
 O         -3.5714592319       -2.9141567617        0.9411167412
 H          1.7821570239       -2.3093799589       -0.7302586874
 C          1.5804415701       -1.8641079780        0.2311837283
 C          0.3040335971       -1.9161619351        0.7658611059
 C          0.0804028157       -1.3311894921        2.0098379224
 C          1.1038287206       -0.7019156254        2.6913809740
 C          2.3747873529       -0.6383778613        2.1464154035
 C          2.6086031471       -1.2209376901        0.9091090948
 N          3.8958489790       -1.1543817406        0.3424161494
 S          4.6059908732        0.3575929394        0.2108559610
 O          5.6521213395        0.1940431667       -0.7738239819
 O          5.0300822142        0.7984680851        1.5162112541
 C          3.3267316877        1.4285848702       -0.4156224402
 C          3.0175464148        1.3555735813       -1.7588900733
 C          1.9991405529        2.1499503347       -2.2566761299
 C          1.3062343186        2.9945361938       -1.4047540305
 C          1.6253730976        3.0534216050       -0.0579793791
 C          2.6443792525        2.2620048745        0.4461332877
 H          2.9255547870        2.2826033056        1.4863760657
 H          1.0810652843        3.7108207790        0.6013863960
 H          0.5106187914        3.6099356825       -1.7936948849
 H          1.7431018365        2.1030097737       -3.3029434634
 H          3.5852622212        0.6930448421       -2.3926930579
 H          3.9692662575       -1.6443869746       -0.5379566651
 H          3.1842445553       -0.1430779454        2.6575721567
 H          0.9121814533       -0.2526330391        3.6543081562
 H         -0.9156578323       -1.3700939160        2.4307536728
 C         -0.8617820094       -2.5459509649        0.0446547525
 H         -1.2678020822       -3.3488370438        0.6762935496
 C         -0.5102745976       -3.1233922491       -1.3103901085
 C          0.0997977935       -4.4884651458       -1.4123524401
 C         -1.3189954205       -4.2669584191       -1.8412582959
 H         -1.5496980255       -4.2899941390       -2.8958104716
 H         -2.1122606899       -4.6464884304       -1.2137570916
 H          0.2731236943       -5.0283536937       -0.4937089262
 H          0.8417259630       -4.6690613798       -2.1757970588
 H         -0.1960633878       -2.3653818074       -2.0190158904
 O         -0.5645011562        0.0409583437       -1.1772200310
