  62
        -98.93164146
 C          2.2297389383       -0.5831742371        0.1391711059
 C          3.5132141833       -1.1273542162        0.3924806921
 C          4.6637327628       -0.4451363824       -0.2246647116
 C          4.4483422648        0.6217054548       -1.0160916832
 C          5.4087129205        1.4881720791       -1.8038025026
 C          6.9080328687        1.4500692246       -1.5190175695
 C          7.3137276779        1.9948812748       -0.1501047937
 H          8.3865238155        1.8340781196       -0.0233220822
 H          7.1350399506        3.0730307794       -0.1377207406
 C          6.5774953627        1.3929627877        1.0443109000
 H          5.5158832537        1.6425010130        0.9848039920
 H          6.9671191729        1.8657154056        1.9500473146
 C          6.7244524924       -0.1186154023        1.2096423203
 H          6.2959226986       -0.3860399260        2.1794534264
 H          7.7828839051       -0.3850556869        1.2278160932
 C          6.0203669285       -0.9742305047        0.1415902019
 H          6.6392005924       -1.0896865340       -0.7449533699
 H          5.8572909343       -1.9714257073        0.5606303487
 H          7.3836642766        2.0777284842       -2.2775656787
 H          7.2926662249        0.4439165814       -1.6568781726
 H          5.0473667944        2.5144510413       -1.6836768976
 H          5.2490831762        1.2275049320       -2.8559227472
 O          3.1884470781        1.0753062112       -1.2784976592
 C          2.0546834377        0.5050196746       -0.7150340887
 O          0.9951138604        1.0567325583       -1.0634535906
 O          3.6940022168       -2.1530760876        1.1019405159
 C          1.0389020332       -1.2576233181        0.7952379012
 C         -0.0775921338       -1.4525492401       -0.1979008673
 C          0.1014876902       -2.3564623475       -1.2420170580
 C         -0.8942332261       -2.5610696652       -2.1771358378
 C         -2.0945716423       -1.8791252734       -2.0832403402
 C         -2.2789057081       -0.9668700415       -1.0511437097
 C         -1.2748975163       -0.7609266769       -0.1156307540
 H         -1.4364222643       -0.0343448082        0.6628063404
 N         -3.4710684978       -0.2324731519       -0.9530254460
 S         -4.0489365257        0.1942216811        0.5712150073
 O         -3.3792082585        1.3868230124        1.0243216941
 O         -3.9908034462       -0.9459747803        1.4598824934
 C         -5.7435681086        0.5792095248        0.1686679915
 C         -6.0238487809        1.8141716261       -0.3855758093
 C         -7.3325049837        2.1126652579       -0.7297513499
 C         -8.3336831116        1.1766319879       -0.5158774391
 C         -8.0377081010       -0.0573677721        0.0432115969
 C         -6.7304294293       -0.3630158705        0.3884290780
 H         -6.4543933924       -1.3057105351        0.8328217766
 H         -8.8188527276       -0.7810373973        0.2114971612
 H         -9.3514920285        1.4121314101       -0.7839682753
 H         -7.5664850798        3.0722856753       -1.1618088768
 H         -5.2141127963        2.5117027560       -0.5243728854
 H         -4.2057839171       -0.5849584319       -1.5506411808
 H         -2.8752609410       -2.0399859887       -2.8112290441
 H         -0.7397087798       -3.2636761251       -2.9823361494
 H          1.0388937742       -2.8917547042       -1.3129958331
 H          1.4130978522       -2.2545237751        1.0843526109
 C          0.5731373342       -0.5819472792        2.0764392194
 C          1.5467217000        0.0900024429        2.9962397071
 C          0.5465147278        0.9070611690        2.2374621524
 H         -0.2828011279        1.3464903697        2.7734551495
 H          0.8885197833        1.5070889151        1.4083000644
 H          1.4149089521       -0.0295127611        4.0610316941
 H          2.5800405830        0.1313547553        2.6839501022
 H         -0.2370342154       -1.1311232819        2.5491330550
