  62
        -98.93733870
 C         -1.1274265761       -1.2764370665       -0.1441456861
 C         -1.7697781257       -0.4581576177        0.8152788739
 C         -2.6823390175        0.5792623451        0.3038534253
 C         -2.8665991107        0.6982682485       -1.0239305542
 C         -3.6862598123        1.6832338123       -1.8315707996
 C         -4.7546752105        2.5444092378       -1.1626571069
 C         -5.9570600739        1.7691093584       -0.6253356715
 H         -6.6025983935        2.4689160484       -0.0900406179
 H         -6.5243549319        1.3763107351       -1.4730324207
 C         -5.6276031047        0.5944993600        0.2926267928
 H         -5.0711241494       -0.1616911993       -0.2650742444
 H         -6.5716995694        0.1361773366        0.5995409652
 C         -4.8507433671        0.9512096304        1.5584477033
 H         -5.3790712002        1.7351942297        2.1043727728
 H         -4.8286958841        0.0599725955        2.1911538520
 C         -3.3949657110        1.3997654675        1.3398202471
 H         -3.3420700984        2.4585762658        1.0980524342
 H         -2.8529031546        1.2459096067        2.2767277673
 H         -5.1222217839        3.2332646742       -1.9282830291
 H         -4.3136547437        3.1533534653       -0.3790358904
 H         -2.9616714654        2.3468452737       -2.3171754547
 H         -4.1493489344        1.0978268216       -2.6324088726
 O         -2.2248417270       -0.1150445143       -1.9137993507
 C         -1.3552712327       -1.1191238604       -1.5103613645
 O         -0.8603697575       -1.7661783821       -2.4529158510
 H          0.9048847028       -0.2253902830       -1.0291849277
 C          1.6583155070       -0.9072854621       -0.6583980597
 C          1.2781665715       -2.0357914264        0.0489048488
 C          2.2812040548       -2.8823562043        0.5151700599
 C          3.6151646639       -2.5995646767        0.2854581862
 C          3.9866413267       -1.4684292708       -0.4224410245
 C          2.9955917201       -0.6296399251       -0.9051265203
 N          3.3607414864        0.5493844794       -1.6055656606
 S          3.8305400070        1.7873527098       -0.5746223961
 O          3.8305664086        2.9940419311       -1.3704224637
 O          5.0831819929        1.4198986745        0.0334452280
 C          2.5437921245        1.8492600610        0.6588313984
 C          2.6752818396        1.0930104336        1.8059528358
 C          1.6282723103        1.0659331712        2.7125234701
 C          0.4711028371        1.7838992107        2.4552884183
 C          0.3525687881        2.5343552508        1.2958650513
 C          1.3955404334        2.5648390695        0.3845542959
 H          1.3417283347        3.1382860516       -0.5278785334
 H         -0.5532976635        3.0841820843        1.0955696112
 H         -0.3481011981        1.7439466020        3.1549342731
 H          1.7090467556        0.4751721039        3.6104494296
 H          3.5895642783        0.5450988765        1.9668740326
 H          2.6134334140        0.8913718265       -2.1946929399
 H          5.0200008203       -1.2170537096       -0.5963578810
 H          4.3766159214       -3.2643411892        0.6631158383
 H          2.0081503577       -3.7667603090        1.0685701966
 C         -0.1717061694       -2.3367941267        0.3563626139
 H         -0.2826753507       -2.3284816102        1.4509957562
 C         -0.5517066034       -3.7161493008       -0.1559154901
 C         -0.4789917639       -4.9144968694        0.7405514403
 C         -1.8114316205       -4.3557276256        0.3445914112
 H         -2.4236249404       -4.9057178919       -0.3541343797
 H         -2.3783025100       -3.8153846319        1.0890629158
 H         -0.1638967092       -4.7649672181        1.7623314494
 H         -0.1697735651       -5.8567939319        0.3146193962
 H         -0.3138013918       -3.8513230580       -1.2045173788
 O         -1.5855823470       -0.5851812128        2.0541320620
