  62
        -98.94946201
 C         -2.0390352962        0.4568745366        0.3179889851
 C         -1.3383201342        1.3545039808        1.1565344728
 C         -0.9146740596        2.6149614043        0.5363968379
 C         -1.1576186041        2.8279505615       -0.7698459691
 C         -0.7914668104        4.0622893283       -1.5488461681
 C          0.6597643772        4.0691947644       -2.0484723338
 C          1.7123039469        4.3537935891       -0.9764894268
 H          2.6488997325        4.5656010001       -1.4962671177
 H          1.4339276873        5.2520488313       -0.4234108477
 C          1.9452669815        3.1931502280        0.0004853642
 H          1.5598478773        2.2696029172       -0.4397081246
 H          3.0195372699        3.0478612161        0.1420094949
 C          1.3306613678        3.3993981181        1.3849046270
 H          1.5482377269        2.5175345217        1.9908975461
 H          1.8019755634        4.2595824990        1.8661719196
 C         -0.1881700434        3.6166917271        1.3851604337
 H         -0.4199427675        4.6268898703        1.0471714585
 H         -0.5486280260        3.5005956126        2.4106555246
 H          0.8723755137        3.1040079943       -2.5158843443
 H          0.7372211886        4.8394388723       -2.8197302728
 H         -0.9744704122        4.9505144081       -0.9428297473
 H         -1.4552134042        4.0889680891       -2.4158166064
 O         -1.8072917248        1.9266756867       -1.5516391580
 C         -2.2527954306        0.7201663204       -1.0354497887
 O         -2.8297895524       -0.0100931401       -1.8648564751
 O         -1.0805356517        1.1162481559        2.3683134522
 C         -2.5093971645       -0.8758244543        0.8771894299
 C         -1.8867184282       -1.9905173115        0.0727930868
 C         -2.5897966744       -3.0692656016       -0.4446245228
 C         -1.9450900523       -3.9986619850       -1.2439391654
 C         -0.6056433289       -3.8630709836       -1.5576637723
 C          0.1122730967       -2.7959965340       -1.0257541803
 C         -0.5252942789       -1.9002454164       -0.1867915291
 H          0.0284841068       -1.0720739569        0.2229470942
 N          1.4717626284       -2.6265276010       -1.3136923778
 S          2.2481240072       -1.1462664485       -1.2352487394
 O          1.3630779083       -0.0341124357       -1.4868226865
 O          3.3648472411       -1.2906032734       -2.1460164217
 C          2.8787178327       -1.1177083372        0.4306030554
 C          3.9502338347       -1.9427549738        0.7159749133
 C          4.4544948842       -1.9703042257        2.0054453517
 C          3.8802335233       -1.1777409440        2.9884016634
 C          2.8083397321       -0.3528491208        2.6870722840
 C          2.3020310389       -0.3202828247        1.3969372095
 H          1.4682199605        0.3147459238        1.1399762392
 H          2.3525760716        0.2634231060        3.4462007398
 H          4.2693543288       -1.2001335834        3.9940386845
 H          5.2903863852       -2.6088114814        2.2414527980
 H          4.3725871107       -2.5330613251       -0.0800518855
 H          1.8375651198       -3.2154237838       -2.0460059906
 H         -0.1182886606       -4.5680412327       -2.2137748367
 H         -2.5022423919       -4.8295363476       -1.6499688480
 H         -3.6433069003       -3.1730904870       -0.2428451213
 H         -2.1201540622       -0.9210089034        1.9052347817
 C         -4.0215197905       -0.9312431208        0.9218526056
 C         -4.7174646615       -1.7778282102        1.9444103985
 C         -4.7375185237       -0.2847666979        2.0683607031
 H         -5.6601158230        0.2396575649        1.8697525505
 H         -4.1303335219        0.1757191747        2.8338776228
 H         -5.6311194915       -2.2791644467        1.6627877068
 H         -4.1019055127       -2.3348603489        2.6341972377
 H         -4.4679068643       -0.8414514164       -0.0624330903
