  62
        -98.93814621
 C          1.4873164282        1.5466280444        0.5057157907
 C          2.2843372622        1.0017704750       -0.5292996867
 C          3.2219262901       -0.0700396050       -0.1370803991
 C          3.2140440182       -0.5303769788        1.1248650614
 C          4.1111856433       -1.5529635342        1.7799787698
 C          4.5654876345       -2.7600198782        0.9537196392
 C          3.4833394852       -3.3439627637        0.0352247412
 H          3.4001530935       -4.4166885278        0.2189345345
 H          2.5204379866       -2.8939018596        0.2766506596
 C          3.7799536733       -3.1397776326       -1.4516779977
 H          4.8341146209       -3.3599740145       -1.6335086210
 H          3.1943539458       -3.8585931701       -2.0301783861
 C          3.4595762923       -1.7480273023       -1.9946297920
 H          3.7871323619       -1.7114280063       -3.0362350145
 H          2.3789413684       -1.5826809824       -1.9928353988
 C          4.1110304398       -0.5804541876       -1.2353820526
 H          4.2258422733        0.2518510702       -1.9348904031
 H          5.0953260057       -0.8523652090       -0.8622981738
 H          5.4391928701       -2.4934187367        0.3615059551
 H          4.8908653558       -3.5202503924        1.6664360537
 H          3.5557320536       -1.9005235162        2.6553609337
 H          4.9939146691       -1.0255139532        2.1552930040
 O          2.3399625142       -0.0543061714        2.0604459543
 C          1.4796352557        0.9912912541        1.7861808850
 O          0.7620450219        1.3299107302        2.7504538534
 O          2.2554760717        1.3959490369       -1.7221988161
 C          0.5392451543        2.7158023777        0.2759852404
 C         -0.7170137326        2.1764442034       -0.3621048770
 C         -0.8757371390        2.0492552860       -1.7366434829
 C         -2.0208270469        1.4708263486       -2.2568594418
 C         -3.0226779231        1.0040560820       -1.4242433820
 C         -2.8679400155        1.1223429740       -0.0491599392
 C         -1.7256039348        1.7098287076        0.4713336990
 H         -1.5960813940        1.7825389723        1.5434738693
 N         -3.8631724564        0.6073879701        0.8072761078
 S         -4.2496161732       -1.0034397152        0.5516655398
 O         -5.2345434392       -1.0978439213       -0.4964556804
 O         -4.6538550350       -1.5180331108        1.8410647076
 C         -2.7261329853       -1.7626503861        0.0126076674
 C         -1.6229572545       -1.6711411754        0.8380745911
 C         -0.4223205702       -2.2152392626        0.4145858411
 C         -0.3447025807       -2.8441276817       -0.8183336503
 C         -1.4620355408       -2.9311741617       -1.6337414509
 C         -2.6643271454       -2.3813677543       -1.2190466516
 H         -3.5545546253       -2.4173422090       -1.8255588749
 H         -1.3965452223       -3.4199924093       -2.5922859169
 H          0.5923833300       -3.2679241897       -1.1439957937
 H          0.4460711464       -2.1332948951        1.0505807053
 H         -1.7028465221       -1.1801931782        1.7954989493
 H         -3.6641957355        0.7662975396        1.7850379306
 H         -3.9152550824        0.5409737567       -1.8131804436
 H         -2.1320128583        1.3756897873       -3.3260919238
 H         -0.0867059384        2.3769280608       -2.3933415195
 H          0.2717762753        3.0803516432        1.2772264122
 C          1.1714669386        3.8549784323       -0.4942287938
 C          0.4968331719        5.1926094167       -0.4870989727
 C          1.7811366936        4.9966859718        0.2598240266
 H          2.6802619531        5.4495044580       -0.1303470242
 H          1.7441599877        4.9635100888        1.3393115716
 H          0.5115414551        5.7827969498       -1.3903274873
 H         -0.4131234462        5.2897427910        0.0860907938
 H          1.6689312665        3.5443576903       -1.4027551976
