  62
        -98.93304772
 C         -2.3272583595       -1.2593610951       -0.2080246165
 C         -1.9587439450        0.0710181114       -0.5209966233
 C         -2.7582871678        1.1282820313        0.1170659718
 C         -3.7516899285        0.8022274711        0.9620867385
 C         -4.6226625234        1.7504751692        1.7433223598
 C         -5.5502442229        2.6650350201        0.9200604288
 C         -4.9621470530        4.0466006313        0.6073033948
 H         -5.7506943041        4.7948986008        0.7093826051
 H         -4.2066250751        4.2840170378        1.3573483906
 C         -4.3640196498        4.2155003492       -0.7925382169
 H         -5.1744330790        4.3474996645       -1.5129586685
 H         -3.7702516048        5.1321143739       -0.7937979850
 C         -3.4939926933        3.0606682297       -1.2887239350
 H         -4.1293969111        2.2210800162       -1.5799385938
 H         -2.9786491329        3.3865273066       -2.1943152915
 C         -2.4607131510        2.5490387688       -0.2661719144
 H         -2.4414561109        3.1864391631        0.6166696229
 H         -1.4633412913        2.5490547873       -0.7103232602
 H         -5.8402992696        2.1561815538        0.0012681800
 H         -6.4565910080        2.8071602437        1.5107084240
 H         -3.9837389082        2.3634444323        2.3835635145
 H         -5.2312623584        1.1162810482        2.3912615781
 O         -4.0639185607       -0.4910095931        1.2506006323
 C         -3.3693904470       -1.5416783510        0.6803316948
 O         -3.7687311287       -2.6689981381        1.0345624591
 O         -1.0135569509        0.3861852761       -1.2918205005
 C         -1.5801662531       -2.4640448677       -0.7636761814
 C         -0.2498769388       -2.5516826186       -0.0549952653
 C         -0.1245051877       -3.3283643537        1.0924970998
 C          1.0601769324       -3.3462072804        1.8065411883
 C          2.1399428481       -2.5824015044        1.3990222863
 C          2.0200484841       -1.7987713867        0.2596403270
 C          0.8394957931       -1.8005709974       -0.4695304703
 H          0.7496150104       -1.1681629787       -1.3386680911
 N          3.1039668105       -0.9929011014       -0.1521822547
 S          3.7048470281        0.0417269234        1.0450400786
 O          4.6324771898       -0.7032160378        1.8602834755
 O          2.6144153642        0.6748717381        1.7542348957
 C          4.5858300949        1.2370504581        0.0601190487
 C          3.8887708454        2.3157992559       -0.4508087251
 C          4.5604490070        3.2320731925       -1.2444750697
 C          5.9091054244        3.0528532077       -1.5145308150
 C          6.5943172515        1.9648202782       -0.9950319626
 C          5.9288622289        1.0447194373       -0.2002959213
 H          6.4191806479        0.1874851903        0.2304604919
 H          7.6428364299        1.8308079062       -1.2064036495
 H          6.4284295866        3.7678928613       -2.1328206630
 H          4.0295235370        4.0791851854       -1.6483410345
 H          2.8421410482        2.4200331049       -0.2097939837
 H          2.8520783924       -0.4489661817       -0.9682560561
 H          3.0603880106       -2.5627530716        1.9603598644
 H          1.1415928797       -3.9529423502        2.6961362617
 H         -0.9765012493       -3.8999490220        1.4336702991
 H         -2.1739703898       -3.3414890841       -0.4763743640
 C         -1.4597874794       -2.4340928762       -2.2732860436
 C         -1.0656493794       -3.6870220081       -2.9940898844
 C         -2.4680735446       -3.1701940359       -3.1011517282
 H         -2.7871308860       -2.7305128001       -4.0342397493
 H         -3.2506079148       -3.7025229663       -2.5801022780
 H         -0.4200905267       -3.6058779356       -3.8549801256
 H         -0.8953213901       -4.5706989752       -2.3977595182
 H         -1.0990131614       -1.4911947114       -2.6621624004
