  62
        -98.94755654
 C         -0.9552340502       -1.4739944103        0.4632034193
 C         -1.0728228699       -0.4475654793       -0.5046183698
 C         -1.9874139095        0.6466069506       -0.1559477987
 C         -2.5349586995        0.6942852097        1.0717666313
 C         -3.4437277392        1.7743037895        1.5936665623
 C         -4.9231239892        1.5683581403        1.2397818921
 C         -5.2777608791        1.8110018518       -0.2276996877
 H         -4.9076613788        2.7905679120       -0.5313513468
 H         -6.3672507691        1.8390926022       -0.2928029477
 C         -4.7519040795        0.7372637725       -1.1904619687
 H         -5.5472223796        0.4472314834       -1.8807025890
 H         -4.4784905998       -0.1562018081       -0.6243774495
 C         -3.5551533393        1.1741296529       -2.0354943683
 H         -3.8558391790        1.9854731136       -2.7016240375
 H         -3.2463080596        0.3270804134       -2.6528400991
 C         -2.3374320792        1.6375570118       -1.2236639678
 H         -2.5280688889        2.6172120914       -0.7867947069
 H         -1.4814338191        1.7095705021       -1.8975262877
 H         -5.5048292690        2.2603148699        1.8533016427
 H         -5.2102818596        0.5527444102        1.5222075611
 H         -3.1101835388        2.7443727197        1.2241582032
 H         -3.3435840392        1.7648217685        2.6814853923
 O         -2.3023694598       -0.2562326513        2.0172582804
 C         -1.5517644402       -1.3821010212        1.7195766594
 O         -1.4842224105       -2.2166905421        2.6472213786
 O         -0.4565074499       -0.4461529985       -1.6013357797
 C         -0.1285164606       -2.7083898303        0.1624129082
 C          1.3110404995       -2.3532867405       -0.1208148815
 C          2.1065052293       -3.0970908399       -0.9852693722
 C          3.4340371294       -2.7601435902       -1.1818462419
 C          3.9920392897       -1.6715351410       -0.5367341708
 C          3.2028765500       -0.9200243915        0.3272098199
 C          1.8799047798       -1.2723616913        0.5380373395
 H          1.2847055800       -0.6878532617        1.2238042900
 N          3.7319760403        0.1944258377        0.9987531509
 S          2.8157325208        1.5560848577        1.2713645622
 O          3.7890851411        2.5619594371        1.6482167631
 O          1.7862087007        1.2974736172        2.2487060819
 C          2.0776695110        2.0587577394       -0.2755810774
 C          2.5976780808        1.6611276004       -1.4897318778
 C          2.0408760810        2.1658460216       -2.6545492273
 C          0.9969338613        3.0728120619       -2.5883993265
 C          0.4898979414        3.4689948709       -1.3606307961
 C          1.0287711513        2.9525049997       -0.1943524266
 H          0.6541831513        3.2201420289        0.7812846137
 H         -0.3231857283        4.1751737512       -1.3081044654
 H          0.5705448315        3.4687000729       -3.4967180161
 H          2.4274385509        1.8481550224       -3.6094190976
 H          3.4132400606        0.9585485201       -1.5311678284
 H          4.6842432204        0.4317683076        0.7616833811
 H          5.0261192198       -1.4046760612       -0.6943162506
 H          4.0412231892       -3.3485608298       -1.8525141124
 H          1.6855444490       -3.9434465593       -1.5027784330
 H         -0.1481881808       -3.3171290511        1.0795451876
 C         -0.7720888909       -3.4975955490       -0.9619927326
 C         -0.7263520814       -4.9952371590       -0.9691323040
 C         -2.0122031911       -4.2864115589       -0.6707179933
 H         -2.7992035411       -4.3048795679       -1.4095440634
 H         -2.3709730111       -4.2826222697        0.3488545567
 H         -0.6335235015       -5.5040554682       -1.9168666245
 H         -0.2212967815       -5.4860932899       -0.1507352644
 H         -0.7219737307       -2.9778729781       -1.9118065221
