  62
        -98.93947113
 C         -2.5698822907       -0.8774525171       -0.3293236946
 C         -2.7434732518        0.4499034156        0.1312503556
 C         -4.0758543594        0.7680366640        0.6602509553
 C         -5.0222166833       -0.1869493576        0.7120216375
 C         -6.4188805914       -0.0220233210        1.2473392416
 C         -7.4118602179        0.5606722250        0.2323006451
 C         -7.2321396934        2.0481598265       -0.0733681095
 H         -8.1180508677        2.3710308492       -0.6238353709
 H         -7.2074499048        2.6092335994        0.8613194320
 C         -5.9859096223        2.3773643607       -0.9070326814
 H         -6.2559812555        3.0698180266       -1.7075088248
 H         -5.6151222913        1.4667536620       -1.3831752687
 C         -4.8463508685        3.0208169590       -0.1167435962
 H         -4.0038564738        3.1766465578       -0.7952058434
 H         -5.1640132674        3.9972503540        0.2556382405
 C         -4.3492326157        2.1838752243        1.0693218373
 H         -3.4088758446        2.6133214231        1.4238078497
 H         -5.0752976719        2.2132829217        1.8814931627
 H         -8.4155064414        0.4137295692        0.6379376601
 H         -7.3408727628       -0.0133424287       -0.6944704639
 H         -6.7623819913       -1.0191691482        1.5311777764
 H         -6.3978343788        0.6048657371        2.1392248187
 O         -4.8032841788       -1.4605521061        0.2874237453
 C         -3.5843010605       -1.8312620440       -0.2570397301
 O         -3.5261743259       -3.0224014782       -0.6262540207
 H          1.2368061490       -0.1166955968       -1.2150935047
 C          1.0664093584       -0.4886977600       -0.2167668015
 C         -0.1352471968       -1.1035253214        0.0955017693
 C         -0.3174121494       -1.5859641360        1.3889716215
 C          0.6666835404       -1.4332232751        2.3460450288
 C          1.8565078766       -0.7976078276        2.0367332103
 C          2.0554038316       -0.3256349901        0.7473217178
 N          3.2547204383        0.3331821620        0.4242817799
 S          4.6935135493       -0.3103105058        1.0303185935
 O          4.7249336586       -1.7405223910        0.8188384450
 O          4.8551167522        0.1272484745        2.3942586706
 C          5.8913940936        0.5013557865       -0.0098863798
 C          6.3866897690       -0.1604773375       -1.1174180077
 C          7.3000719574        0.4888973376       -1.9330425146
 C          7.6980309770        1.7824308557       -1.6305271313
 C          7.1916953357        2.4336828814       -0.5153979030
 C          6.2792192049        1.7899673575        0.3051081813
 H          5.8664700790        2.2528315590        1.1861936705
 H          7.5053100905        3.4385059812       -0.2826270990
 H          8.4094813978        2.2851601930       -2.2664697982
 H          7.6977421029       -0.0155375761       -2.7989272779
 H          6.0563313781       -1.1688331777       -1.3091197567
 H          3.3278196762        0.5320094038       -0.5641659104
 H          2.6319984217       -0.6699123366        2.7746950503
 H          0.5074200148       -1.8102764446        3.3455455604
 H         -1.2470298820       -2.0821087366        1.6349493542
 C         -1.2373515343       -1.3037705453       -0.9172855127
 H         -1.3225860602       -2.3827890067       -1.1140106883
 C         -1.0000317674       -0.5859111310       -2.2299111548
 C         -0.1784197415       -1.2269267540       -3.3068190283
 C         -1.6636943178       -1.1084502044       -3.4671131529
 H         -2.0519320283       -0.3997335539       -4.1831481303
 H         -2.2646014433       -2.0007989771       -3.3666341217
 H          0.4512579706       -0.5992456664       -3.9195223138
 H          0.2323328458       -2.2051951589       -3.1069480899
 H         -0.9427931673        0.4899688276       -2.1096787338
 O         -1.8378084931        1.3229124808        0.1030479018
