  62
        -98.93344099
 C         -1.7757059566       -1.1316597116        0.1743644009
 C         -3.1429865927       -1.1885312918        0.5422611905
 C         -4.0509680466       -0.2269328461       -0.1068066113
 C         -3.5461572275        0.6748147679       -0.9690731043
 C         -4.2208057224        1.7374252428       -1.8111521340
 C         -5.6678580480        2.1433469907       -1.5442710798
 C         -5.8929284970        2.8732975416       -0.2202982971
 H         -6.9674099537        3.0178248818       -0.0882398773
 H         -5.4301871517        3.8612355452       -0.2861835636
 C         -5.3279512634        2.1822605639        1.0182459360
 H         -5.5476455541        2.8143400605        1.8829033112
 H         -4.2411529981        2.1152848243        0.9369716811
 C         -5.8912237598        0.7919490968        1.3054128169
 H         -6.9807767508        0.8393406891        1.3547829424
 H         -5.5253120286        0.4844501079        2.2887445474
 C         -5.4939870743       -0.3041206632        0.3016642620
 H         -6.1413338197       -0.2936418531       -0.5721096294
 H         -5.6224581812       -1.2730899484        0.7929591312
 H         -6.3214617304        1.2792862679       -1.6203922921
 H         -5.9525610866        2.8260085455       -2.3495996407
 H         -4.1452807736        1.3854851973       -2.8462188739
 H         -3.5814611264        2.6232365794       -1.7415219408
 O         -2.2128040732        0.7224691416       -1.2561702384
 C         -1.2959024536       -0.1589784900       -0.7012218909
 O         -0.1225961338        0.0478471930       -1.0619635721
 O         -3.5907787904       -2.0162050280        1.3793068806
 C         -0.8336490996       -2.1382321831        0.8099343085
 C          0.4382003136       -1.4581650163        1.2469788957
 C          0.3642236922       -0.4612873800        2.2167117372
 C          1.4928650746        0.2239102790        2.6221982486
 C          2.7257185130       -0.0709701701        2.0661317567
 C          2.8117246963       -1.0665468626        1.1039005568
 C          1.6785736251       -1.7605392862        0.7057905409
 H          1.7690595280       -2.5075491300       -0.0678391524
 N          4.0828618421       -1.3322602136        0.5216649405
 S          4.3812884690       -0.4063821592       -0.8640311831
 O          3.4998507232       -0.8021468387       -1.9417187706
 O          5.7922185083       -0.5742390477       -1.1436858316
 C          4.0544370103        1.2589514393       -0.3414611392
 C          2.7686817507        1.7551878772       -0.4309886641
 C          2.5265912632        3.0451096545        0.0164989907
 C          3.5606222129        3.8062012592        0.5399130510
 C          4.8455978215        3.2902461403        0.6192612652
 C          5.0973174921        2.0018130838        0.1770343591
 H          6.0775053604        1.5554014019        0.2158961293
 H          5.6472912039        3.8854232305        1.0258602765
 H          3.3619821716        4.8079218214        0.8875113434
 H          1.5255073729        3.4420291892       -0.0433145883
 H          1.9806274299        1.1370388357       -0.8343218029
 H          4.1767045252       -2.3017481430        0.2441066431
 H          3.6154725729        0.4576952377        2.3669514211
 H          1.4136473843        0.9962812672        3.3716641314
 H         -0.6021262084       -0.2212651020        2.6393917304
 H         -1.3662745207       -2.4829114886        1.7120455917
 C         -0.5886697430       -3.3722495539       -0.0464488619
 C         -1.6203131589       -3.8608970058       -1.0172677642
 C         -0.3341077910       -3.2812553345       -1.5205551207
 H          0.3939038238       -3.9478527314       -1.9608951788
 H         -0.3464454579       -2.3008548595       -1.9721198544
 H         -1.7751137307       -4.9255160997       -1.1074951296
 H         -2.5223659761       -3.2774584999       -1.1286980642
 H         -0.0407782102       -4.1383962864        0.4946654791
