  62
        -98.94204565
 C          2.6770475194        1.0996337003        0.3412319285
 C          2.3116523791        0.3654891400       -0.8160126612
 C          2.8941538193       -0.9795458499       -0.9260967211
 C          3.7674024597       -1.4149425996       -0.0009647813
 C          4.4587349399       -2.7510815895        0.0083961988
 C          3.6317226203       -3.8694205794        0.6575011293
 C          2.4317088101       -4.3482184498       -0.1610773802
 H          2.7604987698       -4.6101224600       -1.1671741803
 H          2.0635103404       -5.2614577498        0.3104755801
 C          1.2781056999       -3.3376836200       -0.2454865901
 H          0.3265507100       -3.8396031401       -0.0514843696
 H          1.3960247300       -2.5812002098        0.5350613797
 C          1.1464560193       -2.6353833403       -1.5972587302
 H          0.3063288392       -1.9368492005       -1.5360216501
 H          0.9073448392       -3.3726670706       -2.3672042199
 C          2.3995749091       -1.8611541702       -2.0318719508
 H          3.1782654391       -2.5551890902       -2.3482688209
 H          2.1309278287       -1.2223017005       -2.8764110908
 H          4.2984777805       -4.7199541193        0.8160746293
 H          3.2898687505       -3.5273931093        1.6373126793
 H          4.7224143396       -3.0353236296       -1.0102516813
 H          5.3771546000       -2.6234509192        0.5854383484
 O          4.1383463599       -0.6561162093        1.0650708784
 C          3.5542735998        0.5810963407        1.2955347383
 O          3.8944295400        1.1128266310        2.3718259681
 H          0.4125827099        0.5967769203        1.6517134793
 C         -0.1359358604        1.2815741500        1.0137939094
 C          0.5455221792        2.3313371300        0.4084388089
 C         -0.1675797712        3.1937286097       -0.4121273211
 C         -1.5201506413        2.9936667394       -0.6302957506
 C         -2.1879311109        1.9357723095       -0.0420733801
 C         -1.4840553105        1.0679912398        0.7828198099
 N         -2.1541274201       -0.0225646902        1.3761920303
 S         -2.8377266203       -1.1369043906        0.3130911108
 O         -2.9029839498       -2.3766899604        1.0577019711
 O         -2.1337109107       -1.1793004507       -0.9461663094
 C         -4.4883989805       -0.5145636109        0.0736657912
 C         -5.2994580601       -0.3766587907        1.1831152714
 C         -6.5848530802        0.1128384890        1.0151595217
 C         -7.0354627507        0.4512961287       -0.2523261482
 C         -6.2101215511        0.3028492685       -1.3565225684
 C         -4.9223774909       -0.1848680212       -1.1951418787
 H         -4.2412511712       -0.3099870113       -2.0219036889
 H         -6.5619983314        0.5660557783       -2.3410794184
 H         -8.0360036308        0.8331020285       -0.3805473979
 H         -7.2297648300        0.2295110591        1.8711580919
 H         -4.9106800498       -0.6556469205        2.1481384114
 H         -1.5850660298       -0.5142099900        2.0512794702
 H         -3.2375428209        1.7689304293       -0.2219460297
 H         -2.0599489016        3.6672625892       -1.2782911305
 H          0.3404093385        4.0045900197       -0.9074500214
 C          2.0301108893        2.4368058203        0.6653987784
 H          2.1761847996        2.5662454206        1.7511750283
 C          2.6816164089        3.6372544903       -0.0034717421
 C          4.1202181787        3.5995952704       -0.4227168626
 C          3.0391090584        3.6439002300       -1.4582047222
 H          2.9030916080        4.5597378298       -2.0147635124
 H          2.8287213083        2.7513068098       -2.0254327219
 H          4.7220271586        4.4821102405       -0.2653029430
 H          4.6590579289        2.6736566805       -0.2817983525
 H          2.3318087588        4.5745213603        0.4181534078
 O          1.5397547787        0.7933102897       -1.7106351011
