  62
        -98.93654565
 C         -2.1582743472       -0.9808948430       -0.0965450214
 C         -2.8888499999       -0.2809467738        0.8913632438
 C         -3.7096834447        0.8400957904        0.4142385798
 C         -3.6995191230        1.1615776485       -0.8921771162
 C         -4.4304755653        2.3061122238       -1.5433554689
 C         -5.9695360933        2.2361330497       -1.5166092212
 C         -6.6160784356        2.9807335412       -0.3419379074
 H         -5.9304037850        3.7557269621        0.0030354155
 H         -7.5115200191        3.4922795732       -0.7006388932
 C         -7.0438627492        2.1118478355        0.8447403091
 H         -7.9778234767        1.6028709438        0.5959434485
 H         -7.2460143348        2.7747160988        1.6888828015
 C         -6.0437359722        1.0422550781        1.2840812947
 H         -6.3757799185        0.6378375055        2.2424099221
 H         -6.0604370034        0.2102936269        0.5760537976
 C         -4.5892905497        1.5352031509        1.4125682847
 H         -4.5360116270        2.6156085581        1.2853751819
 H         -4.1972481655        1.2857043463        2.4008854439
 H         -6.3219653848        2.6917387063       -2.4432758718
 H         -6.2866000917        1.1937416598       -1.5285937288
 H         -4.0920329975        2.3118212569       -2.5814350250
 H         -4.1027004154        3.2399598875       -1.0806917083
 O         -2.9547849130        0.4813915616       -1.8062296251
 C         -2.1753526103       -0.6059239969       -1.4402081480
 O         -1.5562532668       -1.1338091791       -2.3819588736
 O         -2.8458872091       -0.5694878719        2.1189881178
 C         -1.2961090043       -2.1582557021        0.3191800843
 C          0.1538529222       -1.8845461145        0.0006565780
 C          0.9916106891       -2.8102429550       -0.6065589945
 C          2.3158293708       -2.4960122867       -0.8607215283
 C          2.8332818593       -1.2617590784       -0.5152027901
 C          2.0087758409       -0.3331359690        0.1072197749
 C          0.6848611220       -0.6526605362        0.3645337158
 H          0.0439694317        0.0720674961        0.8528717284
 N          2.5225991958        0.9286863003        0.4560045065
 S          3.9415510162        0.9860885918        1.3534080090
 O          4.0945164233       -0.1921307313        2.1750740312
 O          3.8976611465        2.2541354130        2.0485645879
 C          5.2259435301        1.0437817927        0.1220315804
 C          5.1992131380        2.0734044035       -0.7980798555
 C          6.1940991672        2.1363602021       -1.7605130273
 C          7.1942187135        1.1755997008       -1.7850227721
 C          7.2092457154        0.1505107000       -0.8516391578
 C          6.2164434471        0.0813335495        0.1134231171
 H          6.1844497651       -0.6996969838        0.8562829506
 H          7.9880421980       -0.5947602283       -0.8719710675
 H          7.9667751924        1.2268926960       -2.5358997494
 H          6.1858616554        2.9323776464       -2.4876041125
 H          4.4069150654        2.8012671030       -0.7422408970
 H          1.8317888265        1.5521701035        0.8478992355
 H          3.8612746934       -1.0114338528       -0.7197173797
 H          2.9531857020       -3.2228751485       -1.3405463946
 H          0.6074507331       -3.7772582509       -0.8861008821
 H         -1.3946720223       -2.2200451959        1.4138533657
 C         -1.8211192021       -3.4415061282       -0.2895084389
 C         -1.6272398097       -4.7485154597        0.4177028471
 C         -2.9876979923       -4.1236421792        0.3578543744
 H         -3.7375054567       -4.5746616345       -0.2746182220
 H         -3.3870355244       -3.6765171690        1.2567247210
 H         -1.4451795498       -5.6330895224       -0.1736857479
 H         -1.1043189337       -4.7331084062        1.3620877528
 H         -1.7854598303       -3.4319781844       -1.3729971086
