  62
        -98.93540644
 C         -1.7776985835       -1.4289031325        0.5339458592
 C         -1.7940833000       -0.0938726681        1.0078132427
 C         -3.0380327615        0.6738639310        0.8266366067
 C         -4.0939124049        0.0784063890        0.2414590296
 C         -5.5026697660        0.5689263507       -0.0226134167
 C         -5.8617178610        2.0408062603        0.1596603347
 C         -5.2419815669        2.9781193743       -0.8774275290
 H         -5.4429595719        4.0079894786       -0.5749656853
 H         -5.7410015571        2.8097458220       -1.8351138268
 C         -3.7425565093        2.8078578100       -1.1069835561
 H         -3.4459161359        3.4959016637       -1.9031952257
 H         -3.5390155907        1.7963550866       -1.4641857017
 C         -2.8568153459        3.0929712109        0.1035359984
 H         -3.0526617455        4.1012572536        0.4739332471
 H         -1.8192396144        3.0545815439       -0.2390125235
 C         -2.9985519036        2.1069216784        1.2744954767
 H         -3.8641332847        2.3462555447        1.8874400648
 H         -2.1131798604        2.2020883681        1.9106063265
 H         -5.6170381891        2.3634650478        1.1674793597
 H         -6.9483423263        2.1121350563        0.0613543257
 H         -6.1470187597       -0.0289975095        0.6314741902
 H         -5.7410723315        0.2648110072       -1.0468954451
 O         -4.0322903072       -1.2105987446       -0.2002511557
 C         -2.8834993895       -1.9868883550       -0.1054181566
 O         -3.0042280199       -3.1141545670       -0.6165179537
 O         -0.8016010524        0.4353726011        1.5766978587
 C         -0.4763756777       -2.1873243374        0.7210222757
 C          0.4918671374       -1.8308078736       -0.3783819781
 C          0.1000334309       -1.8472584584       -1.7135860858
 C          0.9981629177       -1.5101716985       -2.7090679539
 C          2.2934173812       -1.1373747306       -2.3930070143
 C          2.6945558797       -1.1154048175       -1.0623013536
 C          1.7933946776       -1.4698980436       -0.0662815104
 H          2.1175065718       -1.4486000416        0.9629105345
 N          4.0096493647       -0.7665951085       -0.7196658734
 S          4.3421863263        0.2562776974        0.5627437067
 O          5.7539773476        0.5399642711        0.4290521418
 O          3.9304024711       -0.3559038870        1.7992462129
 C          3.4055423555        1.7381747851        0.2370815545
 C          2.0964778866        1.8420572512        0.6610511548
 C          1.3880373059        2.9940247211        0.3562578476
 C          1.9888747996        4.0133789511       -0.3644147474
 C          3.3054267609        3.8920717015       -0.7844449691
 C          4.0201911334        2.7446578036       -0.4843904565
 H          5.0489196593        2.6144276799       -0.7793940329
 H          3.7742441840        4.6867175402       -1.3422655843
 H          1.4294970882        4.9061223872       -0.5962923056
 H          0.3657611786        3.0721607707        0.6911176226
 H          1.6294120440        1.0455624774        1.2175101132
 H          4.5978753436       -0.5405424908       -1.5087781219
 H          2.9910557314       -0.8691481040       -3.1717137112
 H          0.6853809746       -1.5309691179       -3.7421601445
 H         -0.9130649456       -2.1325741888       -1.9583748978
 H         -0.0512946390       -1.8016068579        1.6627057922
 C         -0.6496779760       -3.6886167371        0.8908713910
 C         -0.2518589039       -4.6875286382       -0.1495586302
 C          0.5542922893       -4.5575137271        1.1058009103
 H          0.4994219314       -5.3441059206        1.8430845410
 H          1.5248798854       -4.0891032715        1.0317648453
 H         -0.8842491217       -5.5525479284       -0.2774059684
 H          0.1769167909       -4.3238189594       -1.0700108972
 H         -1.5329686403       -3.9308579754        1.4724696616
