  62
        -98.94496173
 C         -1.8994377582        0.7293114226        0.1456204484
 C         -2.4645598358        0.0762284963       -0.9751510473
 C         -3.5391199751       -0.8827663646       -0.6873622073
 C         -3.8847338664       -1.1175932204        0.5919191029
 C         -4.9928386426       -2.0320359176        1.0256784599
 C         -6.3206015245       -1.2727250642        1.1571828846
 C         -6.6594160443       -0.4054751931       -0.0552765725
 H         -7.6297639240        0.0572091920        0.1372367637
 H         -5.9277674649        0.4021060253       -0.1312909365
 C         -6.7119323619       -1.1681176638       -1.3865128963
 H         -6.8119266695       -2.2375699646       -1.1973240247
 H         -7.6009508679       -0.8520140087       -1.9362638949
 C         -5.5118999535       -0.9261256876       -2.3038870705
 H         -5.3510654394        0.1485997364       -2.4202291464
 H         -5.7517031801       -1.3299015254       -3.2911557272
 C         -4.1911627008       -1.5654596427       -1.8568723717
 H         -4.3478244499       -2.6257054462       -1.6472687128
 H         -3.4832014501       -1.4807054231       -2.6867454603
 H         -7.1182732837       -1.9994015177        1.3218183377
 H         -6.2634507825       -0.6259654831        2.0357149138
 H         -5.0945066612       -2.8403333278        0.3039442342
 H         -4.7285109326       -2.4553962723        1.9962883527
 O         -3.2847580752       -0.5081881547        1.6457113456
 C         -2.2843341390        0.4346835878        1.4539826415
 O         -1.8291660055        0.9206890334        2.5054843000
 O         -2.0821734728        0.2801771234       -2.1597801707
 C         -0.7999420378        1.7522559121       -0.0786623467
 C          0.4789148612        1.2789435949        0.5675564696
 C          1.2452245616        2.0594810809        1.4219770666
 C          2.3991406185        1.5484584324        1.9924004274
 C          2.8192154837        0.2611660684        1.7160200513
 C          2.0723225659       -0.5202453584        0.8421986392
 C          0.9185909343       -0.0063827541        0.2716984806
 H          0.3353823211       -0.6182575651       -0.4054821736
 N          2.4996382067       -1.8228267682        0.5370352396
 S          4.1271341819       -2.0728665932        0.2423749306
 O          4.1800806555       -3.2205783188       -0.6361109845
 O          4.8324556295       -2.2075712661        1.4926501657
 C          4.6854576213       -0.6063043044       -0.6076269463
 C          5.6962328449        0.1604091253       -0.0647534232
 C          6.0960149268        1.3098042609       -0.7276281007
 C          5.4780952186        1.6724502963       -1.9141001014
 C          4.4664666889        0.8893589056       -2.4490899909
 C          4.0643657615       -0.2619215097       -1.7919394975
 H          3.2829629498       -0.8926842303       -2.1852471396
 H          3.9862533839        1.1723137512       -3.3721396251
 H          5.7857322735        2.5699895488       -2.4269610955
 H          6.8837970728        1.9191876648       -0.3150527870
 H          6.1460844850       -0.1568488029        0.8619317467
 H          1.9213906382       -2.3004166462       -0.1378757677
 H          3.7027395995       -0.1568294517        2.1704050784
 H          2.9770387301        2.1610532868        2.6671874623
 H          0.9333206174        3.0640784490        1.6539787169
 H         -0.6424761282        1.7744763088       -1.1672990926
 C         -1.2454783314        3.1251971281        0.3769186898
 C         -0.6665685879        4.3536127834       -0.2570241381
 C         -2.0823398629        3.9575048701       -0.5463149716
 H         -2.8823406789        4.5480317613       -0.1254955232
 H         -2.3112906084        3.5439375861       -1.5178183292
 H         -0.4952171044        5.2214074624        0.3616368582
 H          0.0668315203        4.2147813897       -1.0365992495
 H         -1.4866853406        3.1559017140        1.4333663526
