  62
        -98.92857388
 C          1.7074111406        1.3116227955        0.4863680662
 C          1.6034746815        0.2052755744       -0.3896936723
 C          2.4094146879       -0.9790578072       -0.0311945697
 C          3.1438133515       -0.9615185338        1.0939250708
 C          4.0746731745       -2.0321666624        1.5914636617
 C          5.5144497170       -1.7507612547        1.1289196645
 C          5.8672577293       -2.3031810292       -0.2517751258
 H          6.8568199933       -1.9195616928       -0.5107927225
 H          5.9439915376       -3.3909991608       -0.1929060570
 C          4.8905677916       -1.9420536369       -1.3743677167
 H          5.4179985288       -2.0553284307       -2.3234979724
 H          4.6019010298       -0.8929153314       -1.2889627044
 C          3.6387021576       -2.8315028467       -1.3948999890
 H          3.4887722812       -3.2168267285       -2.4053405245
 H          3.8106960898       -3.6980771034       -0.7563262667
 C          2.3279919033       -2.1404989699       -0.9837676517
 H          1.8397820726       -1.7300284829       -1.8732510554
 H          1.6519201510       -2.8916555249       -0.5612684590
 H          6.2066823763       -2.1842950416        1.8536342548
 H          5.6646226707       -0.6679849110        1.1425738951
 H          4.0456612901       -1.9917466601        2.6824821407
 H          3.7425678276       -3.0142173162        1.2677468437
 O          3.1729521634        0.1091030852        1.9355946077
 C          2.4730891637        1.2674569404        1.6500578209
 O          2.5996087020        2.1711768282        2.5029014119
 H         -0.5807202850        1.3102682495        1.7781911732
 C         -1.1329601530        1.5834489582        0.8863324268
 C         -0.4760869579        2.2930263613       -0.1182611705
 C         -1.2064370892        2.6164642277       -1.2536621332
 C         -2.5408142466        2.2573858944       -1.3642817104
 C         -3.1826075160        1.5570678591       -0.3625180773
 C         -2.4584819175        1.2028920294        0.7693109428
 N         -3.0758521603        0.4520014780        1.7829102496
 S         -4.0905414551       -0.7993271282        1.3310668667
 O         -5.4192399380       -0.2812834879        1.1135496143
 O         -3.9697763103       -1.7811095849        2.3874119993
 C         -3.4511222784       -1.4492205287       -0.2038691922
 C         -4.3087922987       -1.6044427142       -1.2744170385
 C         -3.8114530958       -2.1060817548       -2.4661145011
 C         -2.4691938468       -2.4361965306       -2.5676952628
 C         -1.6211752164       -2.2781426253       -1.4826711432
 C         -2.1143043298       -1.7838195601       -0.2866580922
 H         -1.4693030671       -1.6480045993        0.5676471953
 H         -0.5739599104       -2.5174510775       -1.5661812197
 H         -2.0769211339       -2.8166714756       -3.4974300177
 H         -4.4690020477       -2.2311886488       -3.3112813621
 H         -5.3422767487       -1.3225808046       -1.1533124780
 H         -2.4535037186        0.1706615273        2.5257845529
 H         -4.2214355647        1.2787002630       -0.4356973138
 H         -3.0867740269        2.5258852486       -2.2556943915
 H         -0.7535974573        3.1338882704       -2.0785494988
 C          0.9689883688        2.6120263033        0.1869097198
 H          0.9651380877        3.1652733720        1.1416878941
 C          1.8380701843        3.4334629798       -0.7543222152
 C          1.8637809972        3.3080779915       -2.2449412497
 C          1.3786377603        4.5775468504       -1.6068387328
 H          2.0218499241        5.4438031668       -1.6616489674
 H          0.3295571515        4.8209070005       -1.6311450618
 H          1.1630395668        2.6316541209       -2.7061474253
 H          2.8283362833        3.3204524726       -2.7323351007
 H          2.8097584817        3.5714808646       -0.2825152321
 O          0.8834602259        0.1960390524       -1.4179205316
