  62
        -98.94509561
 C         -2.4537803413       -1.2150412945       -0.0834012457
 C         -3.4978310969       -0.7474043254        0.7553851892
 C         -4.3092232350        0.3563116517        0.2283897776
 C         -4.0272162178        0.8549891065       -0.9889710329
 C         -4.7265088260        2.0230875241       -1.6201668961
 C         -4.0160989439        3.3416415532       -1.2829995890
 C         -3.7146496713        3.5190853576        0.2053454316
 H         -2.9790469922        2.7710062760        0.5113315749
 H         -3.2431418780        4.4969073771        0.3259418212
 C         -4.9451074239        3.4273410731        1.1188446741
 H         -5.8530353234        3.5690188185        0.5316008090
 H         -4.8999798492        4.2391845735        1.8477043327
 C         -5.0517699876        2.1230445175        1.9110873637
 H         -4.1072967115        1.9298723511        2.4259607412
 H         -5.8219104109        2.2521572321        2.6760624442
 C         -5.4200199445        0.8763968449        1.0968300503
 H         -5.6485636399        0.0736108497        1.8036987340
 H         -6.3131874780        1.0757030653        0.5016011086
 H         -4.6385373034        4.1679066113       -1.6314429544
 H         -3.0698146995        3.3749140507       -1.8286370774
 H         -4.7203924093        1.8844953085       -2.7026117300
 H         -5.7573039159        2.0541614972       -1.2726589807
 O         -3.0280596837        0.3739840379       -1.7707033820
 C         -2.2068787765       -0.6574765606       -1.3380588561
 O         -1.3277270548       -0.9776745329       -2.1623844735
 H          0.6661898434       -2.1062580986       -1.1301676942
 C          0.8039055732       -1.6582353096       -0.1587215312
 C         -0.2201602265       -1.7082534530        0.7745701385
 C         -0.0291867224       -1.0895305056        2.0070189672
 C          1.1566953298       -0.4402847880        2.2948093079
 C          2.1715824563       -0.3815110230        1.3552610160
 C          1.9839168899       -0.9814684725        0.1179648895
 N          3.0008676321       -0.8994896458       -0.8525397988
 S          3.5728607153        0.6399251155       -1.2158839044
 O          2.5766223232        1.6561041203       -0.9647056854
 O          4.0790334948        0.5510567987       -2.5685356672
 C          4.9490871861        0.8472059986       -0.1029991839
 C          5.9418628155       -0.1132046372       -0.1073901595
 C          7.0234586436        0.0387706940        0.7453591110
 C          7.0958391607        1.1435875229        1.5808798510
 C          6.0930267876        2.1008352662        1.5708367226
 C          5.0076358288        1.9541473209        0.7208601057
 H          4.2007312191        2.6687418623        0.6825942102
 H          6.1505796606        2.9594330023        2.2204654383
 H          7.9386892273        1.2595040749        2.2437995825
 H          7.8052166437       -0.7035159569        0.7561894931
 H          5.8485973632       -0.9541107177       -0.7739355571
 H          2.7663385828       -1.3859008594       -1.7069471025
 H          3.0933266160        0.1361493499        1.5653706834
 H          1.2916334098        0.0308750618        3.2565551302
 H         -0.8325641628       -1.1096225058        2.7301462523
 C         -1.5600091962       -2.3225978412        0.4532789561
 H         -2.0261796256       -2.6384485571        1.3960472227
 C         -1.4834765309       -3.5162100080       -0.4745548069
 C         -0.9246103715       -4.8068039674        0.0433521419
 C         -2.3910024616       -4.6848310428       -0.2390600465
 H         -2.7973717105       -5.2005187103       -1.0962261476
 H         -3.0705949282       -4.6288966608        0.5985502651
 H         -0.6074991552       -4.8317164784        1.0748409224
 H         -0.3216780123       -5.4101983638       -0.6177738344
 H         -1.2798593846       -3.2518708259       -1.5047934494
 O         -3.7390501898       -1.2332705137        1.8921225333
