  62
        -98.93595298
 C          2.6257819006        0.3085393852        0.3077055453
 C          2.4126219717        1.2536238850       -0.7293533158
 C          1.6441018985        2.4528122544       -0.3836970968
 C          1.2012554858        2.6098492622        0.8759095621
 C          0.3672732857        3.7496383263        1.3956175787
 C         -1.0566196557        3.8241189370        0.8087093350
 C         -1.1964045744        4.7945814009       -0.3714822429
 H         -2.1385267767        5.3370893519       -0.2698387405
 H         -0.3988945723        5.5364008674       -0.3106969837
 C         -1.1937921444        4.1573057466       -1.7645182418
 H         -2.1789438505        3.7287132119       -1.9608368959
 H         -1.0266142054        4.9521884360       -2.4952657898
 C         -0.1649356008        3.0490813944       -1.9931074496
 H         -0.4935244640        2.1314768938       -1.4980097669
 H         -0.1347918877        2.8271294753       -3.0622647991
 C          1.2583409854        3.3783489064       -1.5004636629
 H          1.3274846127        4.4173790041       -1.1813784306
 H          1.9769798936        3.2128803338       -2.3059031367
 H         -1.3753275192        2.8200711980        0.5238157451
 H         -1.7176463293        4.1583735027        1.6103081827
 H          0.8919235898        4.6903022786        1.2137268255
 H          0.3050144197        3.6012958509        2.4756189580
 O          1.4905371191        1.7215293180        1.8626771288
 C          2.1498154931        0.5263399898        1.6007296620
 O          2.2528027764       -0.2071705340        2.6045313593
 O          2.8460249938        1.0898338509       -1.9028501496
 C          3.2243689704       -1.0159388285       -0.1322970732
 C          2.1208073767       -1.8597082765       -0.7351478426
 C          2.3317981274       -2.6191882178       -1.8797045758
 C          1.2902697181       -3.3235228246       -2.4574804415
 C          0.0141395949       -3.2570456974       -1.9277029420
 C         -0.2039724414       -2.5087483004       -0.7763878327
 C          0.8538526064       -1.8480698777       -0.1719448573
 H          0.6652046161       -1.2832107354        0.7291069317
 N         -1.4826847685       -2.3952726351       -0.2065205063
 S         -1.8920647479       -0.9031559882        0.4822350763
 O         -1.3730180173        0.1798081896       -0.3212923929
 O         -1.5171320256       -0.9170920710        1.8737809703
 C         -3.6698123330       -0.9697833894        0.3502444120
 C         -4.3700565444       -1.7408765934        1.2591797466
 C         -5.7483700515       -1.8260022892        1.1440118257
 C         -6.4001702845       -1.1425662007        0.1278693231
 C         -5.6845355441       -0.3708504576       -0.7749771563
 C         -4.3051604944       -0.2833951727       -0.6668200477
 H         -3.7068461963        0.3073118881       -1.3419781009
 H         -6.1936616290        0.1622625420       -1.5615279550
 H         -7.4730704157       -1.2094924529        0.0410452986
 H         -6.3077819513       -2.4228722404        1.8460640503
 H         -3.8199422553       -2.2441018761        2.0372594306
 H         -2.2164380781       -2.7447870707       -0.8080531538
 H         -0.8068459799       -3.7732858088       -2.4013688361
 H          1.4669713480       -3.9069337892       -3.3481890969
 H          3.3123112421       -2.6348797047       -2.3309800178
 H          3.9305984312       -0.7746919421       -0.9398586528
 C          3.9640835256       -1.7918251701        0.9362599885
 C          5.0583687817       -2.7340960474        0.5348171060
 C          5.3918431849       -1.4541606824        1.2390227016
 H          5.7182182715       -1.4922096038        2.2669718334
 H          5.8470796427       -0.6596065333        0.6660020268
 H          5.1595642773       -3.6611485633        1.0774540407
 H          5.2997434996       -2.8086278045       -0.5143873882
 H          3.3358184886       -2.0757918000        1.7705031210
