  62
        -98.94182823
 C         -1.1872460891       -1.5373121110        0.5012078595
 C         -2.1525033392       -1.2030880907       -0.4772221403
 C         -3.2155813096       -0.2764271014       -0.0526172297
 C         -3.2157414797        0.2019621479        1.2032311306
 C         -4.2125065401        1.1286795971        1.8531458711
 C         -4.6843905005        2.3420158974        1.0401728119
 C         -3.6400127107        2.9343184084        0.0820327622
 H         -3.5830774011        4.0128957783        0.2434707829
 H         -2.6482743906        2.5286502286        0.2959683020
 C         -3.9825182006        2.7007692892       -1.3915887179
 H         -3.4335415009        3.4276286297       -1.9953110475
 H         -5.0486244507        2.8902250489       -1.5375613278
 C         -3.6412058602        1.3139777096       -1.9344994288
 H         -4.0272650801        1.2473206101       -2.9547157288
 H         -2.5546665101        1.2010477601       -1.9947393188
 C         -4.1896306797        0.1306178189       -1.1199607595
 H         -5.1708599298        0.3551145583       -0.7088813493
 H         -4.2783362894       -0.7271927107       -1.7921109200
 H         -5.5740330204        2.0756510875        0.4707574417
 H         -4.9881991108        3.1039765669        1.7600909023
 H         -3.7245032002        1.4716043667        2.7687367813
 H         -5.0836042698        0.5380988766        2.1520971308
 O         -2.2641409696       -0.1474670823        2.1146210403
 C         -1.2153485893       -0.9858765818        1.7799082398
 O         -0.3838017292       -1.1625495320        2.6952617197
 O         -2.1325425791       -1.6548177100       -1.6517530906
 C         -0.0094724688       -2.4190589103        0.1327050689
 C          0.8136980509       -1.7561931394       -0.9475545807
 C          1.4683077712       -2.4573338685       -1.9527733611
 C          2.2248834909       -1.7820348677       -2.8954165007
 C          2.3664188105       -0.4065393877       -2.8468802599
 C          1.7201984802        0.3025319415       -1.8411146794
 C          0.9525947705       -0.3764422494       -0.9098915298
 H          0.4327322903        0.1899179200       -0.1532883595
 N          1.8254272097        1.6981541915       -1.7390600586
 S          1.8730332195        2.4044250505       -0.2228697681
 O          0.5644490395        2.3981055397        0.3816188619
 O          2.4495001190        3.7110504009       -0.4602773574
 C          3.0248247998        1.4012835304        0.6997147312
 C          2.5956109502        0.5412531396        1.6891589607
 C          3.5292413404       -0.2604410504        2.3287418902
 C          4.8663749904       -0.1897605697        1.9727444703
 C          5.2841046801        0.6876941210        0.9830169608
 C          4.3564307098        1.4878926511        0.3382772913
 H          4.6420056195        2.1909501517       -0.4272313883
 H          6.3256680701        0.7466721416        0.7115402008
 H          5.5855058306       -0.8197401498        2.4719853399
 H          3.1933365307       -0.9380956010        3.0976795598
 H          1.5504847702        0.4945039391        1.9540498207
 H          2.4762540596        2.1285503021       -2.3790337383
 H          2.9588846803        0.1152706930       -3.5823928995
 H          2.7191843311       -2.3371645170       -3.6779904010
 H          1.3781883316       -3.5301023585       -2.0033583017
 H          0.6167679412       -2.4814509407        1.0360094589
 C         -0.4723540183       -3.8133429603       -0.2362300019
 C          0.3862819621       -5.0024283302        0.0708247974
 C         -0.8628555980       -4.7564526611        0.8607241775
 H         -1.7118708277       -5.4050271513        0.7058009471
 H         -0.7666108181       -4.4002019117        1.8764264677
 H          0.3938276924       -5.8263357997       -0.6267606231
 H          1.3333638221       -4.8248578001        0.5576002275
 H         -1.0656819483       -3.8266477699       -1.1428495219
