  62
        -98.94255853
 C          1.1390746313        1.5481112794        0.4875690657
 C          2.0929606631        1.2636556271       -0.5163475535
 C          3.1819611634        0.3434773865       -0.1444941618
 C          3.2052427269       -0.1957175862        1.0885582957
 C          4.1933452399       -1.1408452935        1.7391780267
 C          5.1585104594       -1.9648127854        0.8905719534
 C          4.4949662352       -3.0008037236       -0.0158045860
 H          5.2744911717       -3.4704578590       -0.6203372428
 H          4.0451302320       -3.7764414589        0.6094424640
 C          3.4028201250       -2.4719671295       -0.9435478243
 H          2.5459455937       -2.1332070626       -0.3553510971
 H          3.0479566550       -3.3097852162       -1.5510410396
 C          3.8343901742       -1.3575694486       -1.8960840356
 H          3.0123816261       -1.1956657201       -2.5988792586
 H          4.7066256428       -1.6815738477       -2.4675547199
 C          4.1506420878       -0.0028056272       -1.2372518943
 H          5.1737550988        0.0329783533       -0.8707927320
 H          4.0446446230        0.7743770384       -1.9997581960
 H          5.8018225679       -2.5051040351        1.5906590439
 H          5.8032417896       -1.3124343628        0.3090271643
 H          3.5889055700       -1.8191742136        2.3500238477
 H          4.7797667350       -0.5327587795        2.4373121057
 O          2.2633870186        0.1138959628        2.0269002310
 C          1.1988415173        0.9505674885        1.7439518556
 O          0.3830601626        1.0811498742        2.6807260937
 O          2.0421671383        1.7509521398       -1.6760379444
 C         -0.0650924669        2.4127801792        0.1669045768
 C         -0.8933388894        1.7571106115       -0.9141657900
 C         -1.5774710085        2.4651378256       -1.8944788842
 C         -2.3343472343        1.7936338109       -2.8396629647
 C         -2.4456946904        0.4146380920       -2.8188174230
 C         -1.7694763178       -0.3014808550       -1.8380282567
 C         -1.0033978388        0.3742527010       -0.9033582920
 H         -0.4616345378       -0.1963420954       -0.1657468336
 N         -1.8429493253       -1.7007748396       -1.7638665629
 S         -1.8497148749       -2.4374439734       -0.2619027542
 O         -0.5314094433       -2.4202488320        0.3208686485
 O         -2.4072909687       -3.7496429136       -0.5141467366
 C         -3.0017024416       -1.4723658904        0.7001975074
 C         -2.5703976072       -0.6404194389        1.7123679783
 C         -3.5043795524        0.1335158009        2.3846939022
 C         -4.8439222352        0.0637037412        2.0377043060
 C         -5.2635389381       -0.7852136249        1.0241695754
 C         -4.3355563769       -1.5577272768        0.3469375362
 H         -4.6225489079       -2.2380522065       -0.4383524942
 H         -6.3068431570       -0.8430527476        0.7592080792
 H         -5.5634587154        0.6721746396        2.5623801249
 H         -3.1668633180        0.7894604988        3.1715265292
 H         -1.5230409165       -0.5930425460        1.9683100206
 H         -2.4934505452       -2.1327129645       -2.4030825129
 H         -3.0379135774       -0.1039836909       -3.5567991610
 H         -2.8520098121        2.3543806910       -3.6029122016
 H         -1.5102913518        3.5403879612       -1.9239213087
 H         -0.6742112793        2.4360659221        1.0836288400
 C          0.3570172719        3.8268783341       -0.1737472284
 C         -0.5271854887        4.9854471729        0.1746250066
 C          0.7394093764        4.7529470585        0.9404491650
 H          1.5690261530        5.4269968965        0.7893523223
 H          0.6672723385        4.3700634880        1.9484059555
 H         -0.5662295736        5.8256786720       -0.5021394217
 H         -1.4621240718        4.7714273493        0.6701348213
 H          0.9362837064        3.8776632887       -1.0880807997
