  62
        -98.93410257
 C         -2.3617201906       -0.9280821694        0.1015798905
 C         -3.5981502405       -0.8275518395        0.7863096407
 C         -4.6494091906        0.0075707406        0.1739266609
 C         -4.3767133808        0.6409753607       -0.9815393491
 C         -5.2630357709        1.5654199108       -1.7733199389
 C         -5.3708144708        2.9642117407       -1.1460311187
 C         -5.5837159507        2.9745139605        0.3653031013
 H         -4.7580251906        2.4476709005        0.8470177311
 H         -5.5424515006        4.0147683105        0.6988501314
 C         -6.9096263506        2.3844821205        0.8399400514
 H         -6.9693059705        2.5487012204        1.9189196414
 H         -7.7323583707        2.9325947805        0.3754488815
 C         -7.1109503706        0.8901891805        0.5772604812
 H         -7.3853489407        0.7056125306       -0.4579561488
 H         -7.9603602105        0.5651339504        1.1851974513
 C         -5.9303822005        0.0089795605        0.9730741110
 H         -6.2659016105       -1.0351121595        0.9932674709
 H         -5.6425751604        0.2365194604        2.0058988110
 H         -6.1866983709        3.4991622408       -1.6351031086
 H         -4.4418293008        3.5003002308       -1.3550909788
 H         -4.8095428510        1.6622917609       -2.7622933189
 H         -6.2459512209        1.1219689608       -1.9019066988
 O         -3.1625242108        0.5406621708       -1.5912220492
 C         -2.1270163708       -0.2259476792       -1.0813404194
 O         -1.0919338508       -0.1898614191       -1.7715294195
 O         -3.8231473604       -1.4113903396        1.8808341006
 C         -1.2793572905       -1.7797971694        0.7414059803
 C          0.0058979895       -0.9998561794        0.8413030803
 C          0.1396479095       -0.0352575095        1.8355125804
 C          1.2986104295        0.7093793005        1.9466154903
 C          2.3455351395        0.5138339906        1.0630529602
 C          2.2198043194       -0.4411126993        0.0636209701
 C          1.0605272194       -1.1991450693       -0.0352586598
 H          0.9676745093       -1.9281936192       -0.8255136399
 N          3.2703294693       -0.6237111192       -0.8521317300
 S          4.8112807893       -0.8959337792       -0.2523100802
 O          5.5128324992       -1.5979659991       -1.3052111904
 O          4.7689879395       -1.5505368493        1.0355495597
 C          5.5043023993        0.7352804308       -0.0826751401
 C          6.0253543095        1.1390744007        1.1308988899
 C          6.5712010994        2.4089713507        1.2366699200
 C          6.5867093793        3.2473966508        0.1326310801
 C          6.0606407992        2.8259607009       -1.0796839599
 C          5.5147047992        1.5573675609       -1.1924404900
 H          5.0975448091        1.1917788810       -2.1160245700
 H          6.0734431491        3.4812697810       -1.9357335799
 H          7.0108240793        4.2355035708        0.2171294301
 H          6.9803686095        2.7386326606        2.1781673100
 H          5.9855792496        0.4550423806        1.9635632698
 H          3.0490391092       -1.2636317691       -1.6008163401
 H          3.2499565395        1.0954340306        1.1381593702
 H          1.3878049596        1.4521579104        2.7247772904
 H         -0.6817571404        0.1251722604        2.5205026905
 H         -1.6472397804       -1.9580702195        1.7651539104
 C         -1.0922689906       -3.1512652893        0.1095592302
 C         -2.2752488406       -3.9321891993       -0.3772362198
 C         -1.2652586507       -3.4148851492       -1.3550159498
 H         -0.5998275408       -4.1246423391       -1.8256579800
 H         -1.5372550008       -2.5872150091       -1.9907603897
 H         -2.3098114106       -4.9933991993       -0.1822169799
 H         -3.2396018606       -3.4470375193       -0.3363548396
 H         -0.3141443105       -3.7182546094        0.6132361600
