  62
        -98.94753756
 C         -1.3282837398       -1.6347279353       -0.5031198185
 C         -1.1877747183       -0.3236881785       -1.0235835194
 C         -2.3734077342        0.5416151044       -0.9133746454
 C         -3.5003432882        0.0633391113       -0.3583380665
 C         -4.7672203770        0.8438993641       -0.1612622104
 C         -4.8056843439        1.5135354250        1.2186667547
 C         -3.5377323601        2.2956461697        1.5619303175
 H         -3.6965613223        2.7639093558        2.5361838479
 H         -2.7009121187        1.6016097514        1.6764854592
 C         -3.1568910394        3.3700717416        0.5344280205
 H         -4.0187380456        3.6124494767       -0.0892194196
 H         -2.8762934800        4.2794519845        1.0704206915
 C         -1.9692738053        2.9945822914       -0.3543185783
 H         -1.1521265209        2.6322023001        0.2760801552
 H         -1.6263596538        3.9023954218       -0.8599249092
 C         -2.2499940395        1.9444872436       -1.4375230414
 H         -3.1413931554        2.2267541699       -2.0023170877
 H         -1.3957121550        1.9336228100       -2.1207778291
 H         -5.6671946305        2.1831905798        1.2534011020
 H         -4.9455008419        0.7396338899        1.9769248135
 H         -4.8489010247        1.5958072855       -0.9436782872
 H         -5.6093341386        0.1542105539       -0.2429137367
 O         -3.6033793302       -1.2017953775        0.1226462702
 C         -2.5233773284       -2.0651849296        0.0813736687
 O         -2.7526257916       -3.1877553652        0.5776220226
 O         -0.1449392456        0.1233474010       -1.5703820657
 C         -0.2078683407       -2.6655041418       -0.5003046466
 C          0.7233910846       -2.4224305840        0.6627848684
 C          0.9181599950       -3.3841949325        1.6470419173
 C          1.7607316715       -3.1326776236        2.7157858964
 C          2.4096966074       -1.9162799819        2.8311498763
 C          2.2190015401       -0.9483268291        1.8513662695
 C          1.3961654398       -1.2140983881        0.7680562561
 H          1.2462917785       -0.4576826182        0.0164721159
 N          2.8656687517        0.2937958579        1.9176367628
 S          2.0911905518        1.6649226599        1.3433421702
 O          2.7814411883        2.7618579155        1.9951347272
 O          0.6668959643        1.6093751426        1.5808210436
 C          2.4668406353        1.7343187343       -0.3957101149
 C          3.4708461346        0.9517683226       -0.9276723594
 C          3.7579414099        1.0622417863       -2.2789115570
 C          3.0465749415        1.9508279245       -3.0691646243
 C          2.0474829587        2.7357305927       -2.5166696844
 C          1.7550808092        2.6294981396       -1.1671361684
 H          0.9781466033        3.2148079861       -0.7027059691
 H          1.4905199494        3.4247612122       -3.1316706242
 H          3.2676062335        2.0286403715       -4.1222594591
 H          4.5318390857        0.4482503132       -2.7115160470
 H          3.9997003634        0.2596796149       -0.2932874493
 H          3.3775308162        0.4762299428        2.7680712046
 H          3.0541818668       -1.7137403513        3.6730992639
 H          1.9039624442       -3.8867508396        3.4749799265
 H          0.3901653002       -4.3242759236        1.5801225458
 H         -0.6977075750       -3.6359390725       -0.3417368184
 C          0.5650687490       -2.7242869271       -1.8038783127
 C          1.3241459817       -3.9712517187       -2.1400496307
 C          0.0826597887       -3.6201039479       -2.9028769252
 H          0.1789326310       -3.2799499047       -3.9228339548
 H         -0.8107734147       -4.1995663502       -2.7192969386
 H          2.2769803594       -3.8749762425       -2.6369254278
 H          1.2726001558       -4.7927851506       -1.4415065904
 H          0.9982124943       -1.7749926842       -2.0891677274
