  62
        -98.94102993
 C         -2.3863310017       -0.2541689762        0.1728731976
 C         -1.5393401703        0.2176267788       -0.8565489231
 C         -1.4801249909        1.6766503472       -1.0220644627
 C         -2.2093609947        2.4629088746       -0.2104636083
 C         -2.2585283924        3.9618978463       -0.2785405092
 C         -1.2233044050        4.6141837156        0.6462185759
 C          0.1895982837        4.0514602228        0.4912212466
 H          0.8429319715        4.6293360087        1.1497102435
 H          0.2124587406        3.0205307624        0.8527316920
 C          0.7396100239        4.0957669714       -0.9412138855
 H          0.1734673602        4.8134415884       -1.5368962223
 H          1.7734140458        4.4460421286       -0.9041703983
 C          0.7553354303        2.7380322007       -1.6460322617
 H          1.4013428425        2.8151249722       -2.5249425269
 H          1.1962104835        1.9974146971       -0.9742814243
 C         -0.6062759676        2.2135198393       -2.1208333875
 H         -1.1266231095        2.9943055306       -2.6803297769
 H         -0.4234408097        1.3713943182       -2.7945454786
 H         -1.5379005515        4.4643593036        1.6817616086
 H         -1.2133373024        5.6878158512        0.4460034512
 H         -2.0881192685        4.2752663597       -1.3069949608
 H         -3.2561855046        4.2824502489        0.0282677299
 O         -2.9933674699        1.9741550945        0.7856247990
 C         -3.0876065853        0.6115909077        1.0098260154
 O         -3.8276268612        0.2951415446        1.9660952672
 H         -0.5458677812       -0.9483718856        1.8336678328
 C         -0.2546434401       -1.8026351638        1.2387524442
 C         -1.1894996582       -2.3993562658        0.3936000036
 C         -0.7719898767       -3.4996181966       -0.3444402202
 C          0.5315983971       -3.9623272808       -0.2543198902
 C          1.4629560961       -3.3288588026        0.5443776485
 C          1.0603279938       -2.2266599856        1.2893513768
 N          1.9698730670       -1.4977329818        2.0877344320
 S          2.2954869140        0.0647077278        1.5685308799
 O          3.2547639653        0.5881722697        2.5181416471
 O          1.0656779150        0.7996318557        1.4330264827
 C          3.0971492030       -0.1529521484       -0.0114914699
 C          4.4732051204       -0.0375268415       -0.0698931502
 C          5.1170750868       -0.2619173989       -1.2754841617
 C          4.3772996611       -0.6062101325       -2.3970386418
 C          2.9985127996       -0.7227228846       -2.3199579465
 C          2.3449599248       -0.4968053213       -1.1174085522
 H          1.2708370481       -0.5768550743       -1.0457953801
 H          2.4154613248       -0.9893292541       -3.1867798182
 H          4.8770347869       -0.7837276248       -3.3363225264
 H          6.1895042576       -0.1693476112       -1.3360796010
 H          5.0040753471        0.2346090605        0.8281681989
 H          2.8463449546       -1.9782011541        2.2425788633
 H          2.4858080391       -3.6716416189        0.5882007272
 H          0.8278295449       -4.8198486332       -0.8391239156
 H         -1.4398432642       -4.0059035490       -1.0165150810
 C         -2.5537980834       -1.7512384989        0.4184668652
 H         -2.9195118320       -1.8346619363        1.4566750428
 C         -3.6988007303       -2.2304408657       -0.4631883484
 C         -3.5638579834       -2.6903236546       -1.8804578283
 C         -4.0110824265       -3.6530844165       -0.8186434684
 H         -5.0511060530       -3.9452957860       -0.8140256193
 H         -3.3468501237       -4.4338452105       -0.4879292464
 H         -4.2966979903       -2.3415690403       -2.5938155782
 H         -2.5704831171       -2.7639009045       -2.2918725230
 H         -4.5668681946       -1.6074514209       -0.2544293088
 O         -0.8753503194       -0.5383825235       -1.6122956830
