  62
        -98.93935799
 C         -1.4988207270       -0.7957089019        0.0001443012
 C         -2.7764425205       -1.3920260606        0.0808621181
 C         -3.8977117512       -0.5026759899        0.4333855343
 C         -3.6593349714        0.8040648379        0.6534020236
 C         -4.5849289192        1.9305846354        1.0644687240
 C         -6.1005502727        1.7632566850        0.9963211385
 C         -6.6677739006        1.6464959812       -0.4180986244
 H         -7.7351369209        1.4277989945       -0.3416462584
 H         -6.5617404535        2.6138446557       -0.9156097481
 C         -6.0078159619        0.5966686139       -1.3085782944
 H         -4.9599020841        0.8576349925       -1.4693915172
 H         -6.5005952131        0.6281782724       -2.2841987988
 C         -6.0873812582       -0.8396240991       -0.7952977576
 H         -5.7230628964       -1.4942630052       -1.5917774332
 H         -7.1283331141       -1.1028897937       -0.5973816851
 C         -5.2573962596       -1.1393445300        0.4648869094
 H         -5.7938743954       -0.8580474833        1.3680306845
 H         -5.0885760128       -2.2194964582        0.5077805249
 H         -6.5331759580        2.6584609243        1.4514649339
 H         -6.4146958149        0.9197725126        1.6039904250
 H         -4.2930604512        2.7921101490        0.4557062618
 H         -4.3108301904        2.1764971824        2.0963275453
 O         -2.4025099496        1.3319644636        0.5712410225
 C         -1.2973160450        0.5616142700        0.2454637264
 O         -0.2243014530        1.1888973940        0.2092844113
 O         -2.9751611633       -2.6214701289       -0.1186207336
 C         -0.2995172399       -1.6491268517       -0.3663048342
 C          0.7621885808       -1.5367902249        0.6988197781
 C          0.4003690003       -1.6884419105        2.0355144424
 C          1.3405168644       -1.5693335526        3.0396532554
 C          2.6611590206       -1.2865815732        2.7357214823
 C          3.0358253808       -1.1499847452        1.4053254057
 C          2.0912914467       -1.2888101218        0.3966464792
 H          2.4152455089       -1.2025358247       -0.6259416700
 N          4.3678947939       -0.8853993043        1.0637984441
 S          4.7549541590       -0.0258508464       -0.3125882468
 O          4.6218477445       -0.8672098021       -1.4760371281
 O          6.0904657885        0.4688903350       -0.0514022841
 C          3.6138836944        1.3408982340       -0.4070442893
 C          2.8921843591        1.5436312030       -1.5644727879
 C          2.0261324632        2.6216248497       -1.6353701597
 C          1.8948739493        3.4725366422       -0.5508387242
 C          2.6285369386        3.2571305218        0.6044205712
 C          3.4988435284        2.1831276386        0.6798864958
 H          4.0858115575        1.9945278293        1.5643683316
 H          2.5178930211        3.9191366926        1.4483518329
 H          1.2100753998        4.3039744779       -0.6041557059
 H          1.4481602940        2.7878580955       -2.5308541658
 H          3.0177808218        0.8523388596       -2.3833163166
 H          4.9790198975       -0.6682097417        1.8364017038
 H          3.3946924403       -1.1788386302        3.5198871783
 H          1.0429873746       -1.6868218957        4.0708595333
 H         -0.6338468606       -1.8945787617        2.2759162464
 H         -0.6664321995       -2.6862211210       -0.3857549546
 C          0.1982064235       -1.2788954847       -1.7478421256
 C          0.9089691515       -2.2905605657       -2.5946624644
 C         -0.4799963383       -1.8561485909       -2.9523971145
 H         -0.6188471066       -1.2266700600       -3.8185600081
 H         -1.2918927443       -2.5477991173       -2.7807771432
 H          1.7329252247       -1.9626908628       -3.2112257836
 H          1.0406301638       -3.2806414588       -2.1846892081
 H          0.5241878046       -0.2456353796       -1.8037056693
