  62
        -98.94790660
 C          1.0641663172        1.1848266022        0.4947925849
 C          1.4344818783        0.4573691729       -0.6615779650
 C          2.2693798067       -0.7276842296       -0.4222713735
 C          2.5160507413       -1.1279021003        0.8379317529
 C          3.3220097606       -2.3327581824        1.2422197442
 C          4.8333877037       -2.0711782788        1.3053225095
 C          5.5224214439       -1.9094910070       -0.0505901317
 H          6.5981547038       -1.9464764943        0.1321786742
 H          5.2718746708       -2.7581824567       -0.6876467367
 C          5.1906583039       -0.5990521353       -0.7786694077
 H          4.7612741491        0.1126031262       -0.0695196306
 H          6.1114619602       -0.1522252218       -1.1602535989
 C          4.2373479934       -0.7549202230       -1.9639817023
 H          4.7159499418       -1.3544803389       -2.7412546384
 H          4.0402926510        0.2374377440       -2.3769243828
 C          2.8900978243       -1.3994024956       -1.6105734184
 H          3.0285437110       -2.4646375562       -1.4263624784
 H          2.2123350827       -1.2683492355       -2.4572306757
 H          5.2896408883       -2.9181014830        1.8231354778
 H          5.0073786778       -1.1791333660        1.9117780764
 H          2.9790258245       -2.6172726148        2.2395165700
 H          3.1242441671       -3.1591866803        0.5588815686
 O          2.0298927613       -0.4685286349        1.9254331755
 C          1.3512897514        0.7323206372        1.7823457807
 O          1.0550118927        1.2871231569        2.8610007928
 O          1.1050926653        0.7834105807       -1.8301408311
 C          0.3299544178        2.5064789136        0.3584888398
 C         -1.0196770748        2.2961174595       -0.2835420866
 C         -1.4449204923        2.9741683485       -1.4180792887
 C         -2.7086012367        2.7469098793       -1.9350706163
 C         -3.5706989900        1.8507032687       -1.3319043274
 C         -3.1583744885        1.1739723244       -0.1884917567
 C         -1.8892187472        1.3955752217        0.3212763149
 H         -1.5774077187        0.8731794855        1.2144974979
 N         -4.0322769459        0.2928245546        0.4681770753
 S         -3.4818188158       -1.1318229169        1.1354645175
 O         -4.6860374415       -1.9067962917        1.3474919741
 O         -2.6847090339       -0.8719725870        2.3072042161
 C         -2.5006401804       -1.9082309903       -0.1335978418
 C         -1.1451132340       -2.0820709125        0.0468998019
 C         -0.4132217792       -2.7094419201       -0.9486216221
 C         -1.0421894271       -3.1314800381       -2.1085826132
 C         -2.4053095753       -2.9426085394       -2.2791665846
 C         -3.1441540971       -2.3298801077       -1.2814080119
 H         -4.2092974198       -2.1889615679       -1.3667171712
 H         -2.8916826667       -3.2737153121       -3.1824808387
 H         -0.4643618621       -3.6128370032       -2.8815323258
 H          0.6451971852       -2.8557203460       -0.8120096835
 H         -0.6858746791       -1.7301026553        0.9584196739
 H         -4.9238831105        0.1654018868        0.0121776928
 H         -4.5584534294        1.6800963360       -1.7316121603
 H         -3.0259527982        3.2764633659       -2.8203221210
 H         -0.7879351802        3.6788096928       -1.8997041739
 H          0.1550549558        2.8603878537        1.3854635687
 C          1.2021321823        3.5136325334       -0.3622098153
 C          1.0100181502        4.9802448718       -0.1244604155
 C          2.2182376966        4.2838105592        0.4241690751
 H          3.1791659775        4.4814837009       -0.0268370389
 H          2.2661430969        4.0998188027        1.4881153101
 H          1.1443338888        5.6601159621       -0.9520881834
 H          0.2380870934        5.2765710811        0.5696832951
 H          1.4850386161        3.1874781004       -1.3561557566
