  62
        -98.94479322
 C          1.8557108532        0.7439979191        0.4143801854
 C          2.4584116338        0.1462189411       -0.7190750230
 C          3.5169029430       -0.8312504397       -0.4332857671
 C          3.8196748078       -1.1393354101        0.8407961599
 C          4.8560289049       -2.1334950719        1.2899895201
 C          6.2814938294       -1.5671328857        1.3457802516
 C          6.9393695645       -1.3260665938       -0.0134571226
 H          7.9990859407       -1.1404609234        0.1725472163
 H          6.8688719879       -2.2324709136       -0.6156439453
 C          6.3602486012       -0.1390917584       -0.7959567486
 H          5.7895350628        0.5002078762       -0.1185134638
 H          7.1766685389        0.4666064346       -1.1955423431
 C          5.4684343024       -0.5311312460       -1.9741521502
 H          6.0620320963       -1.0594600715       -2.7235125067
 H          5.0840936728        0.3834789834       -2.4326372209
 C          4.2692710357       -1.4094006980       -1.5934244847
 H          3.5857940662       -1.4472518231       -2.4454298163
 H          4.6013754674       -2.4224865486       -1.3669090701
 H          6.2645489587       -0.6337726256        1.9132284210
 H          6.8939996592       -2.2818748009        1.9002843872
 H          4.5706624021       -2.4469391520        2.2966713034
 H          4.8347911236       -3.0059721730        0.6361658622
 O          3.1784261714       -0.5799799850        1.9020553209
 C          2.1967172445        0.3810633520        1.7164928408
 O          1.6993153676        0.8186766717        2.7749726058
 H         -0.4124099429       -0.5217259772        0.7718450357
 C         -0.8908383216       -0.0347374634       -0.0694955686
 C         -0.4030493903        1.1914477806       -0.5058423622
 C         -1.0376474622        1.8134884713       -1.5724060429
 C         -2.1076304963        1.2026605797       -2.2048286424
 C         -2.5741713919       -0.0283017671       -1.7836836918
 C         -1.9607862452       -0.6483412258       -0.7016422769
 N         -2.4393634595       -1.8890992292       -0.2497249367
 S         -4.0943137338       -2.0998348135       -0.1283568618
 O         -4.2741965843       -3.0848828358        0.9152865743
 O         -4.6353712712       -2.4471077485       -1.4189141502
 C         -4.7385172053       -0.5169447066        0.3858095174
 C         -5.6641341042        0.1373425649       -0.4012644383
 C         -6.1328168392        1.3767163307        0.0044230416
 C         -5.6669806531        1.9389307508        1.1825446696
 C         -4.7393956888        1.2674090932        1.9645552823
 C         -4.2692604810        0.0270888557        1.5650925916
 H         -3.5502940195       -0.5199437369        2.1542696131
 H         -4.3769489777        1.7053417229        2.8808371199
 H         -6.0279308064        2.9058562750        1.4955517716
 H         -6.8554616289        1.9001730768       -0.6004331650
 H         -5.9959469972       -0.3351238971       -1.3114276401
 H         -1.9596759357       -2.2462668194        0.5628043833
 H         -3.3923072561       -0.5252857437       -2.2791858745
 H         -2.5825460583        1.6911841436       -3.0416721648
 H         -0.6881874221        2.7722655966       -1.9176019105
 C          0.7709699052        1.7901682509        0.2313289128
 H          0.4337985626        2.0575712738        1.2435900850
 C          1.3415475405        3.0247833779       -0.4345606071
 C          0.7521557501        4.3739546906       -0.1567668531
 C          2.0945340166        4.0130083395        0.4027927189
 H          2.9735845221        4.4801163381       -0.0154193992
 H          2.1721021943        3.8085979825        1.4611192451
 H          0.7112992591        5.0943933100       -0.9596563258
 H         -0.0825639359        4.4244325887        0.5256904250
 H          1.7195195579        2.8231582017       -1.4300863868
 O          2.1309807658        0.4089427604       -1.9045949133
