  62
        -98.94046090
 C         -0.6649510573       -1.4286048456        0.0184964327
 C         -1.3682697392       -0.5843721062        0.9068902183
 C         -2.3827097903        0.3004740575        0.3073289401
 C         -2.5398690118        0.3086814754       -1.0275541877
 C         -3.4839488628        1.1312647070       -1.8698082524
 C         -4.8989835650        1.3662458284       -1.3302616245
 C         -5.5066734531        0.1695878582       -0.5842408425
 H         -6.4865130907       -0.0561905343       -1.0090997558
 H         -4.8804163016       -0.7134165908       -0.7228272400
 C         -5.6915860678        0.4298616037        0.9121583043
 H         -6.0969295386        1.4349130757        1.0472320397
 H         -6.4293212774       -0.2749297596        1.3033361060
 C         -4.4291362519        0.2807655919        1.7600825957
 H         -4.1347552151       -0.7714839435        1.8036979329
 H         -4.6717986873        0.5863422593        2.7808320650
 C         -3.2110175399        1.0885025168        1.2811175997
 H         -3.5137828482        2.0486613139        0.8729336986
 H         -2.5646584244        1.2627109016        2.1454108268
 H         -4.9041048136        2.2354902677       -0.6749495022
 H         -5.5247774778        1.6163600698       -2.1888092632
 H         -3.0110101423        2.0961366594       -2.0696696688
 H         -3.5434782084        0.6017053383       -2.8239384686
 O         -1.7845768770       -0.4721328855       -1.8525450066
 C         -0.8519620817       -1.3689031483       -1.3612907240
 O         -0.2691286443       -2.0362827841       -2.2363408163
 H          1.5227345048       -0.0411441503        0.3825026488
 C          2.1502625884       -0.8089961200       -0.0473096791
 C          1.7104573775       -2.1268105410       -0.0331287130
 C          2.5324853827       -3.1075739711       -0.5715889322
 C          3.7540075486       -2.7666756461       -1.1264612230
 C          4.1834883130       -1.4529425905       -1.1467106527
 C          3.3716845065       -0.4644883015       -0.6005229271
 N          3.7549486323        0.8832584725       -0.6326537547
 S          3.2967054816        1.9284050163        0.5826481828
 O          4.1700870162        3.0722363917        0.4196816601
 O          3.3372768291        1.2930685317        1.8795180665
 C          1.6352509125        2.4296460600        0.1858284045
 C          1.2482673516        2.5377215669       -1.1347748550
 C         -0.0237517350        3.0063616572       -1.4214363179
 C         -0.8759282773        3.3702572382       -0.3906037437
 C         -0.4736151793        3.2533635003        0.9300187407
 C          0.7928502932        2.7759109153        1.2234984970
 H          1.1405089002        2.6554124544        2.2373443348
 H         -1.1390737094        3.5312763594        1.7311554785
 H         -1.8593768774        3.7517607519       -0.6149741521
 H         -0.3419853652        3.0883254777       -2.4486453407
 H          1.9342585241        2.2474456766       -1.9134763672
 H          4.6840192486        1.0687918304       -0.9797692882
 H          5.1337881348       -1.1890358890       -1.5851069770
 H          4.3813968460       -3.5365913326       -1.5494529478
 H          2.2148623588       -4.1371776442       -0.5664705551
 C          0.3568884070       -2.4051531421        0.5708066051
 H          0.4152387028       -2.1936934671        1.6493883445
 C         -0.1160977724       -3.8306304527        0.3762309376
 C          0.3159310807       -4.9068714068        1.3255661049
 C         -1.0965878788       -4.4076135271        1.3512213698
 H         -1.8795486393       -5.0502191525        0.9773047672
 H         -1.4033638308       -3.7796110447        2.1750918833
 H          0.5011219575       -5.8962446889        0.9353046703
 H          0.9679593635       -4.6235319177        2.1380903472
 H         -0.2406109217       -4.0874846779       -0.6699563323
 O         -1.1603700295       -0.5690517413        2.1505986150
