  62
        -98.94277729
 C         -2.6975672978       -1.2030903405        0.2303872596
 C         -2.7025084457       -0.3417180993       -0.8936989780
 C         -3.7346680348        0.7038578241       -0.8901662660
 C         -4.6137421993        0.7801573768        0.1246807936
 C         -5.7316306233        1.7782509586        0.2576785950
 C         -5.2981160223        3.1237097453        0.8559484604
 C         -4.4635058662        4.0093992606       -0.0701230116
 H         -4.9764538057        4.1184884445       -1.0262164192
 H         -4.4175302401        4.9987343928        0.3893416678
 C         -3.0316599472        3.5080727880       -0.3054766574
 H         -2.7699171756        2.7760641203        0.4622796325
 H         -2.3326378290        4.3410726193       -0.2031691656
 C         -2.7958017675        2.8858076809       -1.6817867288
 H         -1.7636128565        2.5283665716       -1.7232596352
 H         -2.9210007200        3.6471286902       -2.4550148068
 C         -3.7192366103        1.7043763066       -2.0063107042
 H         -4.7281278461        2.0601929674       -2.2135919364
 H         -3.3342520567        1.2027072938       -2.8975340390
 H         -6.2064619651        3.6685618632        1.1232342632
 H         -4.7417352712        2.9333483845        1.7766167095
 H         -6.1939505090        1.9432227603       -0.7159098521
 H         -6.4720112723        1.3284475484        0.9226639754
 O         -4.5937127000       -0.0850419574        1.1732172025
 C         -3.6262192611       -1.0698150510        1.2666335848
 O         -3.7015486838       -1.7628804252        2.3010082749
 O         -1.9018768785       -0.4291385242       -1.8614648465
 C         -1.6555208949       -2.2988830677        0.3962630080
 C         -0.3256090463       -1.6523320046        0.7017827081
 C          0.0133155068       -1.3756966042        2.0231316994
 C          1.2073039890       -0.7494725431        2.3289596077
 C          2.0839446225       -0.3766437365        1.3247262564
 C          1.7530443646       -0.6435718959        0.0033208884
 C          0.5601210979       -1.2874237110       -0.3004176683
 H          0.3058048630       -1.4736984016       -1.3319430768
 N          2.6202757986       -0.2409841743       -1.0249637729
 S          4.2526166818       -0.5954961124       -0.8990938433
 O          4.7469131927       -0.5991179080       -2.2587119100
 O          4.4766730612       -1.7992455188       -0.1321548617
 C          4.9329271076        0.8089981795       -0.0411585209
 C          4.6667704562        2.0692556321       -0.5396358862
 C          5.2001711723        3.1716502217        0.1086427611
 C          5.9894624133        2.9963173313        1.2356861198
 C          6.2505538286        1.7243863063        1.7215089156
 C          5.7186604113        0.6174285415        1.0783387721
 H          5.8895083337       -0.3897492751        1.4238949060
 H          6.8647070417        1.5902997875        2.5974734904
 H          6.4033596481        3.8563398345        1.7381161523
 H          4.9987320661        4.1623857504       -0.2660391772
 H          4.0506935075        2.1631899449       -1.4184301173
 H          2.2689079099       -0.4331876426       -1.9516926372
 H          3.0147826448        0.1152388507        1.5557427549
 H          1.4578036849       -0.5455952452        3.3589803792
 H         -0.6783437717       -1.6510870854        2.8072921054
 H         -1.9619811037       -2.8707245872        1.2821463668
 C         -1.6116177621       -3.2375043990       -0.7920627002
 C         -0.8848042050       -4.5412887472       -0.6625663187
 C         -2.3812581136       -4.5212793754       -0.7404326826
 H         -2.8558413510       -4.8735933272       -1.6440381490
 H         -2.9425787274       -4.7329462992        0.1579854946
 H         -0.3288757857       -4.9101461016       -1.5111749142
 H         -0.4284578064       -4.7643534388        0.2902585951
 H         -1.5701071563       -2.7281993318       -1.7461611834
