  62
        -98.93943622
 C          2.4487549483        1.2233055320       -0.0097065881
 C          3.1510376021        0.4353480120        0.9298183736
 C          3.7772032110       -0.7954383943        0.4176745764
 C          3.6347740030       -1.1064707845       -0.8826022781
 C          4.1259649675       -2.3432195323       -1.5824254727
 C          3.0235206342       -3.4156684326       -1.6182198113
 C          2.9693211284       -4.3261300359       -0.3916958816
 H          2.0691079329       -4.9386536834       -0.4830602761
 H          3.8286320528       -4.9998718818       -0.4063747891
 C          2.9363309271       -3.6059813333        0.9591284196
 H          2.2497974353       -2.7581621026        0.9045784570
 H          2.5294105004       -4.3001487206        1.6973539519
 C          4.3217881258       -3.1360588015        1.4282079800
 H          5.0836696752       -3.6160839522        0.8144404566
 H          4.4888040170       -3.4757448660        2.4523173062
 C          4.5390382035       -1.6145349503        1.4236732536
 H          4.2454326831       -1.2023826643        2.3942371669
 H          5.6075118668       -1.4074228627        1.3054437800
 H          2.0625140920       -2.9075451957       -1.7414322897
 H          3.1732192802       -4.0441136068       -2.4985049972
 H          4.3586288917       -2.0503494528       -2.6082058168
 H          5.0278737671       -2.7218528374       -1.1107412886
 O          2.9412038420       -0.3238057219       -1.7538115480
 C          2.3193800982        0.8443760260       -1.3460939015
 O          1.7045002647        1.4420153929       -2.2484613851
 O          3.2372075462        0.7376169585        2.1521117397
 C          1.7408302542        2.4803898479        0.4661131614
 C          0.2536654642        2.2927306317        0.2901922027
 C         -0.5631481841        3.1705210470       -0.4083573508
 C         -1.9108972288        2.8948146295       -0.5680178537
 C         -2.4719917803        1.7497696372       -0.0336919910
 C         -1.6652012740        0.8699007274        0.6766818949
 C         -0.3190549063        1.1504795760        0.8380987970
 H          0.3101690418        0.4593486948        1.3868134558
 N         -2.2282923869       -0.3011874929        1.2264142031
 S         -2.9072996729       -1.3780324464        0.1242278240
 O         -2.8584039213       -2.6692568973        0.7761144999
 O         -2.2672714447       -1.2868054311       -1.1686049753
 C         -4.6020246968       -0.8455909688        0.0147558093
 C         -5.3545316190       -0.8342110790        1.1730892756
 C         -6.6750294592       -0.4194376646        1.1082284653
 C         -7.2177827078       -0.0282534608       -0.1069140280
 C         -6.4498202583       -0.0489912770       -1.2611763647
 C         -5.1274172115       -0.4615039193       -1.2031609644
 H         -4.4887804003       -0.4873961681       -2.0718318038
 H         -6.8732516035        0.2552264040       -2.2048880333
 H         -8.2456213340        0.2950093542       -0.1549069864
 H         -7.2755082835       -0.4019605833        2.0033639263
 H         -4.8940396463       -1.1501649821        2.0941555613
 H         -1.5867049541       -0.7993692236        1.8280996037
 H         -3.5190194874        1.5294403032       -0.1635486090
 H         -2.5326106401        3.5814362962       -1.1219259977
 H         -0.1426518120        4.0627916575       -0.8416836657
 H          1.9533380640        2.5454506859        1.5434595057
 C          2.2926520798        3.7124913058       -0.2163184273
 C          2.1853854849        5.0496912523        0.4520265767
 C          3.5154942180        4.3676393249        0.3498934194
 H          4.2502185801        4.7646679883       -0.3342541192
 H          3.9411671042        3.9357723412        1.2439588964
 H          2.0086389307        5.9199692388       -0.1614818158
 H          1.7083110166        5.0868365823        1.4195569503
 H          2.2039193290        3.6674316900       -1.2956493814
