  62
        -98.94634610
 C         -1.3941897430       -1.4328819397       -0.2932312032
 C         -2.6213372533       -1.3977927853        0.4179513709
 C         -3.6606317453       -0.5040154862       -0.1057102688
 C         -3.4071824652        0.2143612049       -1.2145658571
 C         -4.3500886103        1.2080704033       -1.8276704767
 C         -4.1112642823        2.6166077250       -1.2665426185
 C         -4.0534958948        2.6727248714        0.2602290023
 H         -3.1641093024        2.1369054835        0.6017229177
 H         -3.9186262270        3.7198141324        0.5408089355
 C         -5.2941178162        2.1075150844        0.9663598801
 H         -5.5826202349        2.7929144433        1.7660301559
 H         -6.1280046431        2.0578845098        0.2651972070
 C         -5.0883865272        0.7343469293        1.6086544314
 H         -5.9427214796        0.5328712089        2.2603934685
 H         -4.1942890790        0.7553181602        2.2372336353
 C         -4.9660562120       -0.4455259516        0.6364019824
 H         -5.0167320991       -1.3666329557        1.2245067005
 H         -5.8057127488       -0.4357383008       -0.0616229892
 H         -3.1596780677        2.9884703355       -1.6549608902
 H         -4.9063078893        3.2720856861       -1.6273966188
 H         -4.1813142825        1.2236071424       -2.9058159786
 H         -5.3748866049        0.8968458219       -1.6336461476
 O         -2.2313670099        0.1426088728       -1.8841163877
 C         -1.1888343024       -0.6597138819       -1.4373102535
 O         -0.1720597841       -0.5920630738       -2.1542795114
 H          0.4193229181        0.3046204083        0.2758692258
 C          0.9007594463       -0.2632471319        1.0559107735
 C          0.6247960071       -1.6125296910        1.2080978874
 C          1.2487238565       -2.3068543099        2.2403110333
 C          2.1240702498       -1.6633267769        3.0946784695
 C          2.4035620264       -0.3178888440        2.9328627471
 C          1.7839631347        0.3869142665        1.9079615061
 N          2.0292749878        1.7571027289        1.7312347497
 S          2.2148053940        2.3825113363        0.1879143580
 O          2.8688970651        3.6564280561        0.4059376651
 O          0.9431243320        2.4379027261       -0.4856204125
 C          3.3509785934        1.2589603341       -0.6028342227
 C          4.6816734478        1.3615510784       -0.2413805569
 C          5.5951040572        0.4676686586       -0.7732327641
 C          5.1628580005       -0.5165318664       -1.6499471383
 C          3.8262741785       -0.6027237396       -2.0041813171
 C          2.9044278230        0.2911817224       -1.4782170376
 H          1.8591932544        0.2388801115       -1.7417938633
 H          3.4852439745       -1.3634819789       -2.6886417535
 H          5.8709149007       -1.2183034585       -2.0618046502
 H          6.6362802788        0.5377839291       -0.5026084186
 H          4.9760072481        2.1491221008        0.4333744950
 H          2.7172192702        2.1431002920        2.3616519675
 H          3.0845401587        0.1882987553        3.5996127386
 H          2.5959323771       -2.2128796053        3.8945398966
 H          1.0321085173       -3.3547815789        2.3786224764
 C         -0.3161676749       -2.3373300486        0.2705954009
 H         -0.8551831133       -3.0887079970        0.8657237940
 C          0.4920727397       -3.0588304128       -0.7923555096
 C          1.0008176997       -4.4447087989       -0.5384493300
 C         -0.1141262608       -4.2229784035       -1.5149591543
 H          0.0834114336       -4.3314051415       -2.5705619649
 H         -1.1119290050       -4.5215049637       -1.2270576570
 H          1.9740056213       -4.7114113720       -0.9202830208
 H          0.7536951035       -4.9114585069        0.4025748263
 H          1.1174971889       -2.3920007993       -1.3713558259
 O         -2.8383388437       -2.0960502859        1.4459024257
