  62
        -98.93877136
 C          1.6342683363        1.2146215589       -0.5316400241
 C          1.6449642035       -0.1213043334       -0.0692793270
 C          2.9278579683       -0.6341333976        0.4587162659
 C          3.9946272004        0.1854960371        0.4904965558
 C          5.3975375003       -0.1160189675        0.9478750403
 C          6.1866104724       -0.9566442147       -0.0677249532
 C          5.4221448019       -2.1430089179       -0.6480313895
 H          4.5199370220       -1.7797651098       -1.1428777596
 H          6.0522045670       -2.6005357879       -1.4152626409
 C          5.0473652232       -3.2289898880        0.3578118897
 H          5.9538671764       -3.5980541530        0.8425143390
 H          4.6127630858       -4.0575068005       -0.2071204085
 C          4.0460423827       -2.8211274716        1.4417748720
 H          4.5283789720       -2.2539293591        2.2334762508
 H          3.6731596218       -3.7399449042        1.9040005955
 C          2.8250399374       -2.0662869927        0.9258393712
 H          2.3816656942       -2.6278229273        0.0954242667
 H          2.0567631496       -2.0625693925        1.7094837443
 H          6.4716927187       -0.3050218513       -0.8972533934
 H          7.1003484838       -1.3090654364        0.4138609198
 H          5.8998436776        0.8466650373        1.0669820142
 H          5.3788188889       -0.6010886407        1.9193258465
 O          3.9323212238        1.4734667330        0.0446956148
 C          2.7715236094        2.0204918713       -0.4607078977
 O          2.8734517869        3.2139879222       -0.8112900941
 O          0.6410292888       -0.8797942909       -0.1008175970
 C          0.3648933380        1.8592680924       -1.0671572703
 C         -0.5736764467        2.0834004799        0.0945338958
 C         -0.2625990603        3.0700723103        1.0276612638
 C         -1.0814719359        3.2911892145        2.1176541017
 C         -2.2168080166        2.5213987035        2.3095486584
 C         -2.5309558794        1.5291545717        1.3905236738
 C         -1.7182612196        1.3267823561        0.2826164488
 H         -1.9797711061        0.5623073351       -0.4262630755
 N         -3.6814682950        0.7344761308        1.5413760669
 S         -3.4993386768       -0.9396170356        1.4982574258
 O         -4.7007785957       -1.4384328415        2.1375707148
 O         -2.2524072509       -1.3465454935        2.1015208973
 C         -3.5611295773       -1.3563583078       -0.2302901085
 C         -4.7512276160       -1.1407149156       -0.8975633543
 C         -4.8274733654       -1.4475757208       -2.2462988802
 C         -3.7186705064       -1.9655305447       -2.8991237118
 C         -2.5338942453       -2.1806857391       -2.2119868609
 C         -2.4480750567       -1.8749487180       -0.8619789640
 H         -1.5318842203       -1.9968555168       -0.3045379359
 H         -1.6689110907       -2.5781332968       -2.7194795443
 H         -3.7756889985       -2.2018156971       -3.9502271838
 H         -5.7466429932       -1.2808784490       -2.7844569701
 H         -5.5889482908       -0.7433576632       -0.3491454212
 H         -4.2573394538        0.9949345581        2.3301900012
 H         -2.8527394530        2.6863261591        3.1666779613
 H         -0.8320885247        4.0634291076        2.8300550073
 H          0.6339228965        3.6579909317        0.8842114105
 H          0.6692884029        2.8452411162       -1.4453734178
 C         -0.2443952572        1.0637711945       -2.2016446276
 C         -1.2934194522        1.6954677304       -3.0651759091
 C          0.0749738104        1.4339426844       -3.6172330266
 H          0.1979258540        0.6421415504       -4.3406315676
 H          0.7317362293        2.2766712663       -3.7779990306
 H         -2.1134642138        1.0826798966       -3.4074680248
 H         -1.5659056524        2.7175891440       -2.8499553263
 H         -0.3442837947        0.0098711738       -1.9762506247
