  62
        -98.92632731
 C         -2.5885793509       -0.4026094652        0.3241697886
 C         -2.4803704663        0.7358649126        1.1542719676
 C         -2.4333999251        2.0539456655        0.4950442464
 C         -2.4583846762        2.1021870474       -0.8496423469
 C         -2.3879517102        3.3096255100       -1.7472618637
 C         -0.9691471327        3.8868029187       -1.8548029874
 C         -0.2399882009        4.0471558077       -0.5238919757
 H         -0.1310886429        3.0666697318       -0.0549058899
 H          0.7705050167        4.4025058007       -0.7440581624
 C         -0.8790594542        5.0308677458        0.4545473061
 H         -0.9637861396        6.0074781593       -0.0272901187
 H         -0.1925223189        5.1349319594        1.2984887033
 C         -2.2514623014        4.6397195113        1.0095550468
 H         -3.0439412002        4.8557213288        0.2980051343
 H         -2.4392554338        5.2696093008        1.8838937102
 C         -2.3548997470        3.1936498015        1.4819225337
 H         -1.5065371073        2.9680001630        2.1384769354
 H         -3.2442638559        3.0933208310        2.1157725170
 H         -1.0288629819        4.8527925830       -2.3601155130
 H         -0.3742938287        3.2129254796       -2.4771485652
 H         -3.0880282252        4.0692033519       -1.4122186539
 H         -2.7034504322        2.9781852225       -2.7392173598
 O         -2.5271316845        0.9748761985       -1.6135845630
 C         -2.5718823903       -0.2951616354       -1.0668876319
 O         -2.6001722786       -1.2106742699       -1.9082458812
 O         -2.4195701910        0.6598216564        2.4137355633
 C         -2.5816976929       -1.7789203532        0.9827078294
 C         -1.3495165600       -2.4786446160        0.4649303128
 C         -1.2750702674       -3.5166845529       -0.4542273322
 C         -0.0490845261       -3.9497878885       -0.9356500355
 C          1.1309734415       -3.3533507651       -0.5343671953
 C          1.0706507893       -2.3205199703        0.3891314243
 C         -0.1499177727       -1.9082743061        0.8880342741
 H         -0.1815655381       -1.0801875017        1.5871889106
 N          2.2700025042       -1.6418284511        0.7548858193
 S          2.5514474192       -0.3464887032       -0.3040562738
 O          1.7397622384        0.7914260780        0.0769054987
 O          2.3998580719       -0.8268757315       -1.6539432894
 C          4.2709136226       -0.0110831141        0.0280185980
 C          4.6360066255        1.1180443460        0.7338677997
 C          5.9781451004        1.3299502268        1.0104422648
 C          6.9245713678        0.4116132414        0.5829134415
 C          6.5414848515       -0.7186499589       -0.1244368286
 C          5.2023750551       -0.9348939058       -0.4054343992
 H          4.8566636372       -1.7935204957       -0.9564588023
 H          7.2804428499       -1.4301488525       -0.4559145885
 H          7.9675315358        0.5780666876        0.8015215922
 H          6.2783350108        2.2085145966        1.5585932931
 H          3.8653579172        1.8057593763        1.0437707207
 H          2.1862050862       -1.2389292703        1.6808571435
 H          2.0834966586       -3.6548031769       -0.9374816534
 H         -0.0217067311       -4.7513274453       -1.6583573372
 H         -2.1663345310       -3.9771580532       -0.8401071533
 H         -2.3955108512       -1.5640923100        2.0480647091
 C         -3.9579802794       -2.4203784792        0.9400638241
 C         -4.5818610403       -3.0864048118       -0.2469120175
 C         -4.2051937738       -3.8988062374        0.9566016210
 H         -5.0019035861       -4.2692250604        1.5845347884
 H         -3.3548105005       -4.5583894715        0.8974225127
 H         -5.6312870968       -2.8982077804       -0.4246228051
 H         -4.0056730259       -3.1531583176       -1.1547552586
 H         -4.6407824845       -1.8228405299        1.5405336937
