  62
        -98.93658671
 C         -1.8939720593       -1.5117149117        0.0937974096
 C         -1.6953835409       -0.1167754906        0.2008339885
 C         -2.8982996800        0.7151516460        0.4208809952
 C         -4.0954895784        0.1124977039        0.5364371641
 C         -5.4494700420        0.7448148880        0.7219121084
 C         -5.9922358869        1.3767744517       -0.5694095423
 C         -4.9798439726        2.2098397709       -1.3507923706
 H         -4.1275887693        1.5816979486       -1.6164741472
 H         -5.4561244441        2.5196329548       -2.2848220441
 C         -4.4841960882        3.4667175250       -0.6393177873
 H         -5.3394015112        4.1011050095       -0.3961561338
 H         -3.8572993053        4.0131575678       -1.3486240512
 C         -3.6683102963        3.2373564273        0.6352223046
 H         -3.1720808397        4.1816987737        0.8770854610
 H         -4.3121823789        3.0035238488        1.4788051673
 C         -2.5702316281        2.1867781067        0.5054200845
 H         -1.9604840095        2.4133503551       -0.3769738799
 H         -1.8904994600        2.2835379159        1.3606815072
 H         -6.8556254327        1.9936437716       -0.3141854564
 H         -6.3357349249        0.5705668726       -1.2225073065
 H         -6.1277013941       -0.0544172292        1.0292583927
 H         -5.4150469825        1.4756288794        1.5244130066
 O         -4.2346922103       -1.2431304332        0.4611381516
 C         -3.1589480834       -2.0819587832        0.2501261106
 O         -3.4468279616       -3.2956217359        0.2323382541
 H          1.8670211440       -1.7821288742       -0.8174913941
 C          1.6864511083       -1.7909320164        0.2437833799
 C          0.4316886274       -2.0950113773        0.7470835025
 C          0.2433002802       -2.0767837875        2.1274120003
 C          1.2798986764       -1.7467698547        2.9775007687
 C          2.5287381879       -1.4314836218        2.4704853421
 C          2.7312846478       -1.4545451876        1.0959942814
 N          4.0044374963       -1.1875556147        0.5666103099
 S          4.2749272379       -0.2059666180       -0.7579059938
 O          3.5266601001       -0.6836632073       -1.8917674823
 O          5.7148095380       -0.1982706043       -0.9039074639
 C          3.7320168451        1.4250391950       -0.2784890613
 C          2.3834477821        1.6823862393       -0.1357678085
 C          1.9886752618        2.9484492962        0.2693343063
 C          2.9356117471        3.9286892342        0.5201601763
 C          4.2866758932        3.6520831379        0.3723271825
 C          4.6903659923        2.3884907465       -0.0260541443
 H          5.7286250937        2.1281696823       -0.1545455660
 H          5.0237351872        4.4145449283        0.5673606880
 H          2.6189129681        4.9116231084        0.8321833323
 H          0.9351495151        3.1464100391        0.3867357461
 H          1.6501332222        0.9153961994       -0.3259103779
 H          4.7124990671       -1.0141287590        1.2654558293
 H          3.3405096822       -1.1734120540        3.1336623807
 H          1.1160094778       -1.7315382823        4.0446248233
 H         -0.7344429831       -2.3188720923        2.5228588671
 C         -0.7361734363       -2.4672228605       -0.1344401748
 H         -1.1081052579       -3.4498783522        0.2019484401
 C         -0.3477691451       -2.6273378760       -1.5968218694
 C         -1.3497195738       -2.4471298624       -2.6967978551
 C         -0.2380122623       -1.4578865794       -2.5263292352
 H          0.5694312580       -1.4480270083       -3.2444156166
 H         -0.4739161138       -0.4830188696       -2.1302394929
 H         -1.3148972397       -3.1252083779       -3.5362927617
 H         -2.3503178799       -2.1468054405       -2.4204200870
 H          0.3743377778       -3.4263635623       -1.7382893835
 O         -0.5691826021        0.4366633507        0.1162036325
