  62
        -98.94533265
 C          1.5552530966        1.0365932130        0.2799902828
 C          2.8784542383        1.1812320027        0.7669508332
 C          3.9505855574        0.7890873574       -0.1532977760
 C          3.6413784148        0.3285313949       -1.3789531872
 C          4.6221559779       -0.1002755492       -2.4364402469
 C          5.1085238507       -1.5480186110       -2.2840150812
 C          6.0788771901       -1.7899393654       -1.1270409316
 H          6.5049326892       -2.7850580661       -1.2695936923
 H          6.8985514322       -1.0732329658       -1.1864124102
 C          5.4346429332       -1.7243000993        0.2648577829
 H          4.3498280137       -1.8155711555        0.1691788113
 H          5.7739439314       -2.5729760496        0.8631966993
 C          5.7583322097       -0.4554077968        1.0538014083
 H          6.8281800604       -0.4223839622        1.2712448173
 H          5.2224119969       -0.4981875228        2.0053622098
 C          5.3628995422        0.8469693294        0.3456022205
 H          5.4269258185        1.6633089339        1.0690912862
 H          6.0489135317        1.0519810847       -0.4758008881
 H          5.6106945019       -1.8228310214       -3.2145594536
 H          4.2377566222       -2.1987699003       -2.1724407287
 H          5.4786579110        0.5744653343       -2.4381542517
 H          4.1055675371       -0.0102927272       -3.3944457169
 O          2.3593993094        0.2160985920       -1.8153880914
 C          1.2853569338        0.5417598519       -0.9964793640
 O          0.1740529305        0.3647136079       -1.5294777075
 O          3.1499705011        1.6202341613        1.9164294627
 C          0.4081166087        1.3820431223        1.2160725730
 C         -0.2395547669        0.0928787550        1.6599444176
 C          0.4599101869       -0.7504730265        2.5207042001
 C         -0.0869564258       -1.9512179548        2.9286076538
 C         -1.3351816464       -2.3438440633        2.4745015397
 C         -2.0378316105       -1.5143546025        1.6107062791
 C         -1.4937882891       -0.2975616361        1.2210225554
 H         -2.0531292284        0.3384472977        0.5592715272
 N         -3.3153630232       -1.8667645270        1.1395318226
 S         -3.5868073169       -1.8264544231       -0.5215015828
 O         -4.7636572479       -2.6528154812       -0.7033933432
 O         -2.4121225946       -2.2359730863       -1.2543431899
 C         -4.0215778151       -0.1363446615       -0.8679143387
 C         -3.2049627375        0.6422483697       -1.6641639838
 C         -3.5745799291        1.9563639971       -1.9088220179
 C         -4.7420588492        2.4632821881       -1.3589200078
 C         -5.5510682040        1.6648114684       -0.5640260294
 C         -5.1904859837        0.3504824388       -0.3158591470
 H         -5.7914624727       -0.3070646760        0.2897970725
 H         -6.4570710031        2.0635455586       -0.1370217740
 H         -5.0202092814        3.4878106672       -1.5507759054
 H         -2.9406716239        2.5773521554       -2.5222482687
 H         -2.2858947195        0.2250411165       -2.0472817828
 H         -3.6703635809       -2.7312983818        1.5245633176
 H         -1.7603681187       -3.2866657665        2.7850242577
 H          0.4637386278       -2.5928938381        3.6001693170
 H          1.4403941936       -0.4490441394        2.8628640096
 H          0.8833058187        1.8395929727        2.0955033317
 C         -0.5570643890        2.3746376113        0.6054458672
 C         -1.5499602332        3.0752370596        1.4827823726
 C         -0.3986313837        3.8351739648        0.8978474412
 H         -0.5942956734        4.5418886543        0.1056831422
 H          0.4066739300        4.1292248723        1.5550461356
 H         -2.5400842464        3.2568385496        1.0930623286
 H         -1.5252270129        2.8516323016        2.5384811836
 H         -0.8720660685        2.1018799525       -0.3939957416
