  62
        -98.94453998
 C         -1.5067453241       -1.5062065042        0.1996153652
 C         -1.7336468582       -0.4664105418        1.1395339723
 C         -2.9747626984        0.3031971390        0.9828310490
 C         -3.7972351021        0.0134380689       -0.0422807595
 C         -5.0880070756        0.7210045718       -0.3360904633
 C         -4.8766337578        1.9156670812       -1.2759094425
 C         -3.7473641788        2.8472511692       -0.8379239343
 H         -2.8011737256        2.3071257590       -0.9082374004
 H         -3.7041734522        3.6692625503       -1.5551670020
 C         -3.9066789764        3.4129855666        0.5800783075
 H         -4.9414906203        3.3046271073        0.9071149036
 H         -3.6844209892        4.4819170918        0.5589696699
 C         -2.9797569433        2.7893193738        1.6254839265
 H         -1.9449420540        2.8382837724        1.2790139994
 H         -3.0424175768        3.3930177007        2.5350899104
 C         -3.2906448800        1.3411656848        2.0241663994
 H         -2.6650196581        1.0966978274        2.8880922392
 H         -4.3370902269        1.2638367683        2.3288405890
 H         -5.8114508399        2.4756635033       -1.3372150246
 H         -4.6418315239        1.5353110578       -2.2725765269
 H         -5.7657488585        0.0104323993       -0.8121927064
 H         -5.5299215965        1.0567596968        0.6003937080
 O         -3.5205441018       -0.9473736436       -0.9564054470
 C         -2.3850449580       -1.7404739929       -0.8597967156
 O         -2.2978606728       -2.5890403345       -1.7670879749
 H          2.0518016707       -1.2432184307        1.1706470366
 C          2.0021130196       -1.4044435777        0.1040826724
 C          0.8718174174       -1.9750726655       -0.4631106907
 C          0.8387445049       -2.1671826677       -1.8407533853
 C          1.9180624661       -1.7993977235       -2.6227644612
 C          3.0381784598       -1.2163968246       -2.0550404407
 C          3.0767425118       -1.0111281541       -0.6820141566
 N          4.1880170131       -0.4030017610       -0.0687280036
 S          3.8939094510        0.8954239847        0.9531718334
 O          5.1600433117        1.5909776885        1.0317427561
 O          3.3508583666        0.4279633910        2.2010709242
 C          2.7128204045        1.8742835115        0.0451611452
 C          1.3582202519        1.6887311139        0.2335208040
 C          0.4765778298        2.3708005120       -0.5902939026
 C          0.9520607048        3.2282014717       -1.5689734566
 C          2.3163637536        3.4153081758       -1.7330189508
 C          3.2053045895        2.7238493894       -0.9275089396
 H          4.2733108398        2.8369999726       -1.0222241186
 H          2.6860592728        4.0883020530       -2.4896515400
 H          0.2545776414        3.7524376927       -2.2030342430
 H         -0.5833176914        2.2144742828       -0.4616520188
 H          1.0001245840        1.0295965192        1.0090565347
 H          4.9355264459       -0.1777842236       -0.7103987910
 H          3.8760359842       -0.9228877584       -2.6689911642
 H          1.8831583828       -1.9589624285       -3.6897407106
 H         -0.0445141375       -2.5936072102       -2.2902162582
 C         -0.2805110965       -2.3757194829        0.4261584712
 H          0.0226384533       -2.1718845711        1.4627881358
 C         -0.5710849889       -3.8590300907        0.3007453857
 C          0.3544764076       -4.8347370393        0.9606044432
 C         -1.0246089766       -4.6213267296        1.5075521112
 H         -1.7597336226       -5.4013604291        1.3778054279
 H         -1.1265528660       -4.0765061570        2.4351808296
 H          1.1883277993       -4.4341993903        1.5178909930
 H          0.5691895769       -5.7637211082        0.4553216907
 H         -1.0017021561       -4.1376962099       -0.6517525280
 O         -0.9394195897       -0.2082723507        2.0848420943
