  62
        -98.93574325
 C          2.2946128212       -0.6738298731       -0.0510212614
 C          3.3451158326       -0.4262695746       -0.9687727814
 C          4.3289106020        0.5878312961       -0.5692296749
 C          4.1710839985        1.2428110989        0.5950104113
 C          5.0445310919        2.3452851606        1.1328962451
 C          6.4918754434        1.9540065846        1.4890645274
 C          7.5082578940        2.2030736943        0.3678021496
 H          7.1204943387        2.9806783017       -0.2913616365
 H          8.4272928884        2.5952446492        0.8081031055
 C          7.8996633428        0.9773215469       -0.4630795218
 H          8.6082967857        0.3717892187        0.1066578793
 H          8.4158895216        1.3313060168       -1.3580723756
 C          6.7506548815        0.0609329424       -0.8843449666
 H          6.4244631325       -0.5357756080       -0.0291278929
 H          7.1321290228       -0.6451684838       -1.6246265109
 C          5.5210561134        0.7915338222       -1.4583446920
 H          5.7283275470        1.8528737354       -1.5860823325
 H          5.2593063054        0.3716993709       -2.4315938739
 H          6.7798550005        2.5598698677        2.3496628033
 H          6.5198012144        0.9114265060        1.8049382124
 H          5.0581911307        3.1651583285        0.4112304608
 H          4.5399283106        2.7018733930        2.0331150973
 O          3.1305496784        0.9947994410        1.4360239210
 C          2.1780723699        0.0283449688        1.1483964273
 O          1.3049005158       -0.0993149499        2.0277896907
 O          3.4526357459       -1.0224960270       -2.0734403185
 C          1.2578819910       -1.7239903519       -0.4134420081
 C         -0.0653304390       -1.0406118961       -0.6530300842
 C         -0.2735292054       -0.3791796356       -1.8606272012
 C         -1.4609639440        0.2825864840       -2.1083867920
 C         -2.4637165288        0.3074636711       -1.1542713942
 C         -2.2642382163       -0.3439905870        0.0547049412
 C         -1.0752560944       -1.0209436494        0.2956579462
 H         -0.9313018602       -1.5141915377        1.2441023358
 N         -3.2697353944       -0.3020909822        1.0358704474
 S         -4.8267069081       -0.7485837496        0.6017960941
 O         -5.4558352662       -1.1821504913        1.8303940245
 O         -4.8205343163       -1.6996571910       -0.4858449482
 C         -5.5808099112        0.7753659789        0.0730713401
 C         -6.1604966877        0.8597521230       -1.1775945698
 C         -6.7539236008        2.0520978946       -1.5622437734
 C         -6.7573859839        3.1328070826       -0.6938710246
 C         -6.1722405366        3.0312207869        0.5596311150
 C         -5.5787625004        1.8417457761        0.9507295461
 H         -5.1157892343        1.7213399184        1.9160596842
 H         -6.1764054870        3.8738526818        1.2322416283
 H         -7.2188205707        4.0599662785       -0.9952648121
 H         -7.2088710977        2.1333089025       -2.5363496582
 H         -6.1289265831       -0.0048954460       -1.8211962409
 H         -2.9996039017       -0.7274640246        1.9107291894
 H         -3.3911618731        0.8253449813       -1.3372406785
 H         -1.6083331888        0.7867732624       -3.0513736607
 H          0.5143063853       -0.3890921480       -2.6011111126
 H          1.5975273593       -2.1464720710       -1.3690735210
 C          1.1983452830       -2.8347463924        0.6140268570
 C          0.5065024638       -4.1184575083        0.2680475967
 C          1.9994093429       -4.0809562468        0.3922002754
 H          2.4582076713       -4.5568428966        1.2459466657
 H          2.5892413536       -4.1415909423       -0.5105655240
 H         -0.0620755735       -4.6228321527        1.0347094503
 H          0.0795620925       -4.2024123501       -0.7200449284
 H          1.1198822793       -2.4738058948        1.6326636515
