  62
        -98.94070439
 C         -2.6111740996       -0.6614570893       -0.4490365002
 C         -3.1435170396        0.1655869406        0.5756317399
 C         -3.2016786497        1.6046678006        0.2977852301
 C         -2.7791776998        2.0577018708       -0.8959661699
 C         -2.7375185699        3.5012170208       -1.3034783897
 C         -1.3734484599        4.1283908609       -0.9850936396
 C         -0.8874900599        3.8691605208        0.4413683903
 H         -0.6597385298        2.8055973408        0.5553452202
 H          0.0589015901        4.4015688308        0.5619681804
 C         -1.8655539799        4.3109096206        1.5392089304
 H         -2.5808767600        5.0259097706        1.1307724405
 H         -1.3005686700        4.8250971405        2.3195274004
 C         -2.6220055498        3.1685077504        2.2203108303
 H         -1.9118349098        2.3973855705        2.5321475302
 H         -3.0932233499        3.5647198403        3.1238363803
 C         -3.7221596398        2.5023739805        1.3839577502
 H         -4.3053911998        1.8604171103        2.0504599901
 H         -4.3853383799        3.2655339705        0.9719618703
 H         -1.4394298900        5.2041730509       -1.1590450195
 H         -0.6313518999        3.7147930910       -1.6719910097
 H         -2.9114234499        3.5599333609       -2.3793337397
 H         -3.5278056299        4.0417703607       -0.7863181196
 O         -2.2972165297        1.2387755009       -1.8617609300
 C         -2.1522556896       -0.1253059891       -1.6519895201
 O         -1.6147609396       -0.7137644689       -2.6133874302
 H         -0.0581171895       -1.4948872790       -1.1068970603
 C          0.0189719505       -1.9624347691       -0.1354780403
 C         -1.1314833095       -2.3896957693        0.5120624596
 C         -1.0053739494       -2.9836699594        1.7616862196
 C          0.2379265106       -3.1277422394        2.3538893695
 C          1.3777492706       -2.6667650392        1.7194147996
 C          1.2598168405       -2.0809393691        0.4676034296
 N          2.4185451405       -1.5356542189       -0.1544435603
 S          2.7045002004        0.0367247210        0.4174966099
 O          2.6777041304        0.0002295609        1.8577923799
 O          1.8004329403        0.9721581310       -0.2189286000
 C          4.3724893703        0.3129518312       -0.1463940601
 C          4.6077605403        1.1438675213       -1.2238007800
 C          5.9115341103        1.3208245815       -1.6609492900
 C          6.9497800703        0.6636129215       -1.0189365401
 C          6.6966163204       -0.1696743587        0.0608677898
 C          5.3962251704       -0.3493162688        0.5033990198
 H          5.1509398204       -0.9799270789        1.3414881897
 H          7.5069949104       -0.6781893887        0.5576571198
 H          7.9628255103        0.8032411416       -1.3616892901
 H          6.1104882702        1.9693387916       -2.4989763299
 H          3.7692916402        1.6376254113       -1.6889202700
 H          2.2775577105       -1.4543760688       -1.1548584803
 H          2.3467856706       -2.7318401692        2.1855409196
 H          0.3169598206       -3.5852038595        3.3282952495
 H         -1.8941064894       -3.3067802395        2.2836625095
 C         -2.4841121895       -2.1390746393       -0.1128692203
 H         -3.2457013695       -2.3303791794        0.6555282296
 C         -2.7290474294       -3.0772699692       -1.2765510904
 C         -3.1478237993       -4.4881476192       -0.9951616306
 C         -4.1275095294       -3.5183569192       -1.5829348305
 H         -4.4140801694       -3.6314329791       -2.6174754305
 H         -4.9188221194       -3.1448545894       -0.9494986404
 H         -3.2779593193       -4.7755822194        0.0370308494
 H         -2.7604204193       -5.2736018891       -1.6253943007
 H         -2.0682191094       -2.9043089390       -2.1155519104
 O         -3.5553614996       -0.2887835696        1.6770029499
