  62
        -98.94213899
 C         -0.4809160695       -1.9072648130        0.5144262326
 C         -1.4145002349       -1.7599608261       -0.5405468820
 C         -2.6416637703       -1.0181019881       -0.2151265973
 C         -2.8229673131       -0.5586221152        1.0357845365
 C         -3.9521923532        0.3237532008        1.4854352811
 C         -3.6754233700        1.7785674141        1.0517941435
 C         -4.6623568213        2.3296509793        0.0223301070
 H         -5.6042748590        2.5691768832        0.5215694450
 H         -4.2404620816        3.2624256689       -0.3585381557
 C         -4.9769177892        1.4073829748       -1.1595732313
 H         -5.7162821758        0.6635238083       -0.8573246815
 H         -5.4502228448        2.0237633007       -1.9270121658
 C         -3.7755405608        0.6826400451       -1.7812676421
 H         -2.8496078469        1.2229754763       -1.5752762235
 H         -3.9042946532        0.6760350950       -2.8659451217
 C         -3.6170422894       -0.7835827970       -1.3333636151
 H         -4.5942887838       -1.1960897658       -1.0670010738
 H         -3.2285016711       -1.3668896772       -2.1734844998
 H         -3.6964681220        2.4306996476        1.9270479154
 H         -2.6636954971        1.8366045759        0.6423333012
 H         -4.8902830071       -0.0303704182        1.0639667811
 H         -4.0085100784        0.2562764262        2.5724401206
 O         -1.9336153954       -0.7783470651        2.0390088285
 C         -0.7288769205       -1.4241112854        1.7969223148
 O          0.0206635599       -1.5020869107        2.7916597491
 H          0.5296045967        0.0927812847       -0.3368165208
 C          1.3138580532       -0.3376842771       -0.9376019955
 C          1.6177728493       -1.6839657041       -0.8012972887
 C          2.6138659689       -2.2182163123       -1.6110273463
 C          3.2658985336       -1.4207779128       -2.5356214101
 C          2.9495682847       -0.0808140643       -2.6734705310
 C          1.9551731064        0.4628427364       -1.8685453431
 N          1.5753018185        1.8049618232       -1.9854687209
 S          0.8500347055        2.6250687788       -0.7305144311
 O         -0.5039552979        2.1715607902       -0.5323127611
 O          0.9971134797        4.0184624293       -1.0948423354
 C          1.8509291301        2.2715068342        0.7023791587
 C          1.3049604456        1.6261007296        1.7918642624
 C          2.1175960951        1.3202677234        2.8717347720
 C          3.4575305646        1.6732440617        2.8460227513
 C          3.9901265794        2.3374140270        1.7508558712
 C          3.1827059566        2.6369339792        0.6663112738
 H          3.5617850059        3.1549571283       -0.1994145165
 H          5.0317471472        2.6150088406        1.7377140096
 H          4.0883174898        1.4283764840        3.6858993520
 H          1.6954045225        0.7887303196        3.7098811413
 H          0.2597188622        1.3568131253        1.7830090791
 H          2.1590214230        2.3886334104       -2.5638590259
 H          3.4530905451        0.5344131158       -3.4028464820
 H          4.0334759360       -1.8497786783       -3.1615618231
 H          2.8717023532       -3.2611395842       -1.5230640053
 C          0.8847736647       -2.5040597253        0.2377165447
 H          1.4458518299       -2.4318269896        1.1820856083
 C          0.7706913075       -3.9660180794       -0.1480759172
 C          1.8158387378       -4.9515480549        0.2787446961
 C          0.4618725817       -4.9709676046        0.9197209008
 H         -0.2128410600       -5.7809056890        0.6868335301
 H          0.3683471385       -4.6022972949        1.9311632925
 H          2.0720350194       -5.7546437738       -0.3958630485
 H          2.6435647712       -4.5839617303        0.8664750893
 H          0.3000124104       -4.1027789968       -1.1146541723
 O         -1.2244398797       -2.2081808352       -1.7017293752
