  62
        -98.93509371
 C          1.7489036189       -0.1566637238       -0.2608521185
 C          2.8803206618       -0.1466781981       -1.1060846170
 C          4.1997640420       -0.1318297897       -0.4475299893
 C          4.2563034895       -0.1016208046        0.8963836803
 C          5.4713644239       -0.0818585542        1.7893428857
 C          6.6151743823        0.8578855545        1.3774101831
 C          7.8580182146        0.1203880466        0.8759182249
 H          8.7275889257        0.7668477708        1.0141061188
 H          8.0098142751       -0.7659415132        1.4954305010
 C          7.8192323732       -0.2921653345       -0.5945511884
 H          7.9224159882        0.5959685812       -1.2219262184
 H          8.6894059655       -0.9253270503       -0.7832966441
 C          6.5609394819       -1.0459764331       -1.0296766035
 H          6.8090961253       -1.6203188778       -1.9248352457
 H          6.2609629903       -1.7622320765       -0.2657201839
 C          5.3819471390       -0.1252169304       -1.3781662780
 H          5.7343244694        0.9039301676       -1.4947491084
 H          4.9679682611       -0.4106818132       -2.3504183358
 H          6.9008855697        1.4391689854        2.2556407915
 H          6.2638341079        1.5629010143        0.6255870491
 H          5.0934258606        0.2031846323        2.7737538209
 H          5.8477981504       -1.1033377376        1.8847416364
 O          3.1347243458       -0.1092244571        1.6730339914
 C          1.8625116296       -0.1410658059        1.1285151721
 O          0.9418793557       -0.1489380560        1.9662383157
 H         -2.2986177408       -0.0236452402       -0.1937777986
 C         -1.7916324046        0.9251568926       -0.1369675118
 C         -0.4430614335        1.0174251207       -0.4451669258
 C          0.1703743484        2.2658612481       -0.3764290463
 C         -0.5401175625        3.3832579925        0.0147416910
 C         -1.8855083277        3.2858396999        0.3236429895
 C         -2.5132742726        2.0501513919        0.2401278398
 N         -3.8748278815        1.9150736902        0.5493054506
 S         -4.8511689313        0.9502056429       -0.4071765472
 O         -4.4121191601        0.9448534848       -1.7829548985
 O         -6.1924177832        1.4428315943       -0.1725255872
 C         -4.7174815585       -0.6823751257        0.2894071101
 C         -4.7591433288       -1.7725432494       -0.5569192635
 C         -4.7115378265       -3.0469757652       -0.0132861803
 C         -4.6231501171       -3.2076541816        1.3607202619
 C         -4.5836770770       -2.1020810573        2.1969124575
 C         -4.6358708903       -0.8255674252        1.6602969779
 H         -4.6041186573        0.0539324187        2.2813677828
 H         -4.5113574531       -2.2306912486        3.2649453346
 H         -4.5834523331       -4.1998625635        1.7819658461
 H         -4.7422388829       -3.9075968341       -0.6627407927
 H         -4.8157463842       -1.6018543571       -1.6202149147
 H         -4.3395048684        2.7736993315        0.8067631508
 H         -2.4437425852        4.1586619521        0.6268338034
 H         -0.0455502122        4.3413673316        0.0726056566
 H          1.2190933876        2.3474086022       -0.6281171763
 C          0.3646163532       -0.1808026135       -0.8796399231
 H          0.5269327542       -0.1018808916       -1.9656772793
 C         -0.3128341921       -1.5033401027       -0.5849756721
 C         -1.2848616387       -2.0955979412       -1.5597104534
 C          0.0731797124       -2.7057536607       -1.3915331312
 H          0.1527794530       -3.6589491986       -0.8912555470
 H          0.8020003334       -2.5612382351       -2.1757231922
 H         -2.1375634498       -2.6310580194       -1.1704240236
 H         -1.4884426516       -1.5411380309       -2.4637612321
 H         -0.4971533350       -1.6469928705        0.4739843183
 O          2.7951375467       -0.1483309057       -2.3650579286
