  62
        -98.93809090
 C          1.9760414552        1.3615216556        0.3503540532
 C          2.6771828344        0.7750286575       -0.7296634091
 C          3.8649439095       -0.0233285116       -0.3770536851
 C          4.2070360199       -0.1671915452        0.9145852574
 C          5.3925411623       -0.8960882918        1.4961853837
 C          5.7415915485       -2.2677470168        0.9020338265
 C          4.5403935922       -3.0862408396        0.4062388408
 H          4.5921151633       -4.0884975333        0.8359137045
 H          3.6088402007       -2.6332616831        0.7505747182
 C          4.5035664690       -3.2307563457       -1.1172076869
 H          3.8797809391       -4.0906994714       -1.3732711745
 H          5.5142745008       -3.4430821846       -1.4726965713
 C          3.9481452654       -2.0272737600       -1.8781126694
 H          4.0873755212       -2.2120281597       -2.9459873590
 H          2.8708793402       -1.9446839047       -1.7073800972
 C          4.5816199350       -0.6712295631       -1.5263980822
 H          5.6468613401       -0.7718918276       -1.3331640441
 H          4.4427718386       -0.0053846660       -2.3824069906
 H          6.2644240998       -2.8249797745        1.6812208994
 H          6.4461549103       -2.1411872058        0.0813030927
 H          6.2651484462       -0.2409644616        1.4196767028
 H          5.1649961548       -1.0053221217        2.5593715374
 O          3.4841496393        0.3946715639        1.9255096257
 C          2.3559887009        1.1564510570        1.6748659870
 O          1.7827064947        1.5811367694        2.6998012506
 H         -0.1708719295       -0.1210443411        0.9554569546
 C         -0.6655537707        0.1607685579        0.0334668694
 C         -0.3170950921        1.3597371041       -0.5780211172
 C         -0.9705027828        1.7199024122       -1.7482502280
 C         -1.9199974421        0.8805539454       -2.3071887490
 C         -2.2476211145       -0.3212855409       -1.7085548253
 C         -1.6172834379       -0.6792567776       -0.5225303849
 N         -1.9625383866       -1.8853552392        0.1096398153
 S         -3.5868384560       -2.2752172762        0.2183171891
 O         -3.7022777354       -3.0864355268        1.4101068410
 O         -4.0183787856       -2.8981229268       -1.0083118463
 C         -4.4353587768       -0.7198343251        0.4328298184
 C         -5.3871814032       -0.3237243637       -0.4844888998
 C         -6.0145921253        0.8999859502       -0.3139413923
 C         -5.6775383932        1.7041495760        0.7634216744
 C         -4.7219585066        1.2903259684        1.6791254401
 C         -4.0937231917        0.0666163004        1.5152539658
 H         -3.3492641044       -0.2832334614        2.2128710670
 H         -4.4603325035        1.9164291393        2.5171503537
 H         -6.1619053807        2.6590506301        0.8928348760
 H         -6.7598266758        1.2231046748       -1.0226565476
 H         -5.6150232771       -0.9784443531       -1.3098117737
 H         -1.4858410390       -2.0437377352        0.9847414848
 H         -2.9705712916       -0.9930218179       -2.1421817822
 H         -2.4096245455        1.1658328864       -3.2255477595
 H         -0.7282783114        2.6514534452       -2.2317107464
 C          0.7410748216        2.2057210493        0.0885798478
 H          0.3631125796        2.5015088652        1.0781282304
 C          1.1061700073        3.4538571662       -0.6860973375
 C          0.2708724896        4.6906314102       -0.5537654435
 C          1.6357517471        4.6386160089        0.0624474913
 H          2.4289728169        5.2186840270       -0.3847781060
 H          1.7121441459        4.5532804994        1.1369641879
 H         -0.5832248664        4.6485449402        0.1048629891
 H          0.1273506284        5.3121383939       -1.4245598123
 H          1.5502538349        3.2326952342       -1.6493908413
 O          2.3397029588        0.9160016962       -1.9328083191
