  62
        -98.94054691
 C          2.3624659156        0.7964463478       -0.1300358370
 C          3.5695554837        1.0903270775        0.5485817385
 C          4.7888579840        0.5311957334       -0.0449367419
 C          4.7087318124       -0.1891134994       -1.1787302083
 C          5.8651515202       -0.8048302957       -1.9190160442
 C          6.2965014262       -2.1737761619       -1.3750211095
 C          7.0271989052       -2.1387421034       -0.0321854325
 H          7.4591533709       -3.1292879339        0.1234748199
 H          7.8527142958       -1.4285351080       -0.0875864077
 C          6.1314546302       -1.7972637262        1.1667858853
 H          5.0836229540       -1.9328885252        0.8885774538
 H          6.3372921374       -2.4911510934        1.9849390264
 C          6.3187202223       -0.3824764369        1.7149752844
 H          7.3284861096       -0.2757643885        2.1173336096
 H          5.6120837182       -0.2363542134        2.5359922607
 C          6.0831409914        0.7301414742        0.6848104784
 H          6.0216471573        1.6827923019        1.2164648039
 H          6.9142547391        0.7744360118       -0.0184630917
 H          5.4125838831       -2.8104935720       -1.2930056968
 H          6.9624699510       -2.6230723876       -2.1152756351
 H          5.5380570995       -0.9328100693       -2.9530429017
 H          6.7148403036       -0.1217752675       -1.9048608020
 O          3.5299598919       -0.4320567193       -1.8118906628
 C          2.3280460437        0.0300960160       -1.2948225319
 O          1.3261939356       -0.2986305239       -1.9582489107
 H         -1.5659113346        0.8588468225       -0.3386976989
 C         -1.1620626636        0.0907930480        0.2989995638
 C          0.1378949652        0.1711977097        0.7699112800
 C          0.6137030154       -0.8487104271        1.5915528676
 C         -0.1894074163       -1.9213949374        1.9242492130
 C         -1.4899056660       -1.9951712042        1.4561382756
 C         -1.9740127333       -0.9846352523        0.6349277804
 N         -3.2791350888       -1.0455421284        0.1218496872
 S         -4.1412452083        0.3903420052       -0.0818078550
 O         -3.7767367652        0.9881155571       -1.3413611123
 O         -3.9950796700        1.2256262425        1.0890816998
 C         -5.8027030895       -0.2513569070       -0.1791260439
 C         -6.5965637284       -0.2554747690        0.9523120221
 C         -7.8741304382       -0.7872752112        0.8730324803
 C         -8.3325404773       -1.3059433420       -0.3286011676
 C         -7.5245939861       -1.2938979180       -1.4560748506
 C         -6.2467181521       -0.7626128015       -1.3841063534
 H         -5.5864037248       -0.7236984044       -2.2349160208
 H         -7.8853155390       -1.6952215671       -2.3893584460
 H         -9.3268065866       -1.7196797422       -0.3878720040
 H         -8.5058846944       -0.7949357604        1.7465940867
 H         -6.2008718808        0.1661839890        1.8622707267
 H         -3.8416359988       -1.7631418016        0.5579568497
 H         -2.1198871662       -2.8320620164        1.7167833500
 H          0.1956617963       -2.7043998760        2.5602740543
 H          1.6275310437       -0.7861590599        1.9638590456
 C          1.0565023626        1.3210133765        0.4378043097
 H          1.3274195547        1.8223355246        1.3795731569
 C          0.4387185448        2.3421179169       -0.4929003203
 C         -0.5016440375        3.3769925986        0.0460823527
 C          0.8715874043        3.7734936374       -0.4038696242
 H          0.9723761734        4.3393624470       -1.3177595029
 H          1.6036231222        4.0241564032        0.3499027630
 H         -1.3510408701        3.6629043735       -0.5567312443
 H         -0.7084426271        3.3598428842        1.1057817320
 H          0.2387874233        1.9405634064       -1.4807265409
 O          3.6241377205        1.7831246797        1.6000957776
