  62
        -98.94758184
 C         -2.5309831083       -0.2834531107        0.0054407284
 C         -2.2186668103       -1.2935863428       -0.9341337221
 C         -1.5884005907       -2.5046226879       -0.3949091737
 C         -1.3667782573       -2.5956513604        0.9290366369
 C         -0.7327862531       -3.7719243354        1.6140022317
 C          0.7836869694       -3.5974652730        1.7629562664
 C          1.4981984861       -3.2056033221        0.4693552252
 H          1.2137226344       -2.1857251256        0.1991574970
 H          2.5692085059       -3.1836244721        0.6865489882
 C          1.2388078248       -4.1393626907       -0.7205661284
 H          2.1869652872       -4.3182733232       -1.2317328642
 H          0.8719370664       -5.1034356327       -0.3650499409
 C          0.2719352089       -3.5771037249       -1.7649409218
 H          0.3693608339       -4.1731750623       -2.6766539182
 H          0.5626995489       -2.5510338519       -2.0086072507
 C         -1.2114051610       -3.5823290224       -1.3715700628
 H         -1.7978674362       -3.3852748107       -2.2739576999
 H         -1.4887645869       -4.5674097195       -0.9894646126
 H          0.9709557581       -2.8113764875        2.4981627237
 H          1.2003642661       -4.5325469393        2.1433351592
 H         -1.1756230809       -3.8640215850        2.6076627055
 H         -0.9508367606       -4.6736930547        1.0445151866
 O         -1.6933542512       -1.6107769735        1.8043189356
 C         -2.2321723545       -0.4130770468        1.3617089580
 O         -2.4223083491        0.4283503274        2.2616426010
 H         -0.4988092750        0.8726943566       -1.0020750920
 C         -0.7408540531        1.8248890605       -0.5527556365
 C         -2.0612309201        2.1157043403       -0.2361362537
 C         -2.3506353941        3.3564971470        0.3155470490
 C         -1.3320306828        4.2585334132        0.5749617682
 C         -0.0121386978        3.9382921701        0.3145517932
 C          0.2840240463        2.7054951651       -0.2561853908
 N          1.6068837964        2.3186868249       -0.5427701608
 S          1.9695913829        0.6873216242       -0.2582829885
 O          1.6292044769       -0.0724853094       -1.4351441811
 O          1.3769758959        0.2605016074        0.9882217431
 C          3.7442535705        0.7701571288       -0.1042525936
 C          4.5106568152        0.7938977643       -1.2540745799
 C          5.8881280943        0.8931298672       -1.1387164279
 C          6.4727968183        0.9665598258        0.1169505271
 C          5.6908471075        0.9388102134        1.2619559680
 C          4.3123427309        0.8413764474        1.1534546062
 H          3.6634802889        0.8068927211        2.0141855282
 H          6.1477871705        0.9918653449        2.2369406194
 H          7.5450446373        1.0430121299        0.2041216926
 H          6.4991951966        0.9119579669       -2.0265339259
 H          4.0106204292        0.7242631782       -2.2059441639
 H          2.2915885498        2.9273204748       -0.1141146763
 H          0.7814026017        4.6307186823        0.5514088030
 H         -1.5687592645        5.2176645278        1.0102376459
 H         -3.3695504774        3.6112812363        0.5574967246
 C         -3.0871947409        1.0388795623       -0.4951032963
 H         -3.1933143345        0.9179451838       -1.5840722534
 C         -4.4462257147        1.3322360414        0.1014782267
 C         -5.4363127792        2.1664514813       -0.6538091659
 C         -5.6570355940        0.6919404710       -0.5062680894
 H         -6.4419020514        0.3482293473        0.1503776194
 H         -5.5018647484        0.0605693164       -1.3690838700
 H         -6.0752943606        2.8364254076       -0.0987320496
 H         -5.1393764947        2.5385724749       -1.6226617152
 H         -4.4148839950        1.4206768526        1.1814088591
 O         -2.4643052814       -1.1882479808       -2.1680851805
