  62
        -98.93302802
 C         -2.2167605876       -0.8466744414        0.6445242076
 C         -3.3048322462       -0.8779946299       -0.2577660866
 C         -4.3890735784        0.1024823586       -0.0326009326
 C         -4.2904861088        0.9601905680        0.9989958675
 C         -5.2381876145        2.0605850307        1.3972914299
 C         -5.1375957141        3.2921053926        0.4833365176
 C         -5.0756388143        2.9803202156       -1.0094700382
 H         -4.9045855768        3.9219416530       -1.5378929940
 H         -4.2145305898        2.3386933674       -1.2054568170
 C         -6.3325474415        2.3386206120       -1.5921922030
 H         -7.1857590961        2.9972912201       -1.4156899318
 H         -6.1871145682        2.2658823229       -2.6729463405
 C         -6.6768398007        0.9434068553       -1.0661752621
 H         -7.4238491337        0.5166213416       -1.7417866101
 H         -7.1426859013        0.9955737287       -0.0858903387
 C         -5.5053829814       -0.0330296494       -1.0406983047
 H         -5.8995583295       -1.0471825437       -0.9043732934
 H         -5.0243062928       -0.0424374684       -2.0252090792
 H         -5.9899265676        3.9424397286        0.6873638454
 H         -4.2270679824        3.8352986173        0.7482350304
 H         -6.2561459627        1.6837776113        1.4281577732
 H         -4.9625196530        2.3571401848        2.4117758507
 O         -3.2206841203        0.9531710390        1.8469579368
 C         -2.1750255203        0.0669808504        1.7005739197
 O         -1.2826452336        0.1796201960        2.5670722013
 H          1.2403714822       -0.3553823765        0.7561939206
 C          1.0269084414       -0.6074801183       -0.2733814668
 C         -0.1118499314       -1.3378173895       -0.5856421526
 C         -0.3772450242       -1.6262215637       -1.9202758337
 C          0.4877908088       -1.2007736849       -2.9119075057
 C          1.6381535315       -0.5008864675       -2.5951202213
 C          1.9049585315       -0.1950000221       -1.2653688243
 N          3.0500350322        0.5384764058       -0.9158150506
 S          3.8248030691        0.1743907774        0.5391564587
 O          3.8569962290       -1.2573269040        0.7369418304
 O          3.2288000171        0.9554027276        1.5939168116
 C          5.4652251549        0.7830110453        0.1930924916
 C          6.4368303651       -0.1002231073       -0.2385955545
 C          7.7008119607        0.3857005626       -0.5343762366
 C          7.9693520011        1.7393298584       -0.3972767995
 C          6.9842162207        2.6134988002        0.0380366384
 C          5.7185910016        2.1342019906        0.3366593974
 H          4.9242720435        2.7725376848        0.6874161985
 H          7.1974808997        3.6646511828        0.1467693484
 H          8.9535518474        2.1152319119       -0.6280324469
 H          8.4696052896       -0.2918108416       -0.8692653495
 H          6.1838384547       -1.1449643339       -0.3216914764
 H          3.7051657947        0.6348741522       -1.6796576157
 H          2.3200735807       -0.1836177617       -3.3695508948
 H          0.2697190778       -1.4287732315       -3.9443476544
 H         -1.2774107878       -2.1623657325       -2.1739328381
 C         -1.0259401115       -1.7856768113        0.5305318414
 H         -0.4706676116       -1.6709956667        1.4722035545
 C         -1.4297745213       -3.2400040269        0.3879525965
 C         -0.3993658196       -4.2996075953        0.6322322356
 C         -1.5159308132       -4.0987544196        1.6116192413
 H         -2.2963737230       -4.8429790352        1.6647703929
 H         -1.2844687790       -3.6398152237        2.5623319012
 H         -0.4115105402       -5.1833355345        0.0130331442
 H          0.5909760454       -3.9741744083        0.9165235630
 H         -2.1600631824       -3.4132679506       -0.3909404057
 O         -3.3994994925       -1.6828086866       -1.2214849925
