  62
        -98.93250995
 C         -2.1326927701       -1.1105866931        0.2855603069
 C         -2.1504274887       -0.2133177759       -0.8087204494
 C         -2.2319561745        1.2244654913       -0.4746769282
 C         -2.2880601828        1.6031875862        0.8122642215
 C         -2.3885257176        2.9991243769        1.3648646218
 C         -3.8560367254        3.4140167420        1.5665820613
 C         -4.5181257032        4.0546800412        0.3476090824
 H         -5.5757530367        4.1891150801        0.5851285500
 H         -4.0885591539        5.0452616518        0.1852884813
 C         -4.4037397084        3.2525085929       -0.9505413846
 H         -4.5874069841        2.1962463678       -0.7460878324
 H         -5.1890278064        3.5939006485       -1.6275190556
 C         -3.0426462721        3.4154519749       -1.6437765127
 H         -2.4960148171        4.2354240969       -1.1789972714
 H         -3.1974694449        3.6985364577       -2.6871822185
 C         -2.1714005464        2.1535278056       -1.6569027659
 H         -2.4494280871        1.5296899989       -2.5131528895
 H         -1.1216713505        2.4314799162       -1.8111243234
 H         -4.4160864223        2.5246150295        1.8660533926
 H         -3.9067208178        4.1262730903        2.3925486179
 H         -1.8933824754        2.9758436795        2.3381395314
 H         -1.8614196277        3.7018982567        0.7263127791
 O         -2.3139262512        0.7032041910        1.8355397442
 C         -2.1923411255       -0.6506914135        1.6029528157
 O         -2.1723385515       -1.3500449144        2.6378754620
 H          0.2189100978       -1.1496759428       -0.7423473775
 C          0.5300500763       -1.9901484754       -0.1397417535
 C         -0.4128934406       -2.8630310197        0.3825007466
 C          0.0275025748       -3.9375732201        1.1463138645
 C          1.3778707043       -4.1229832016        1.3865316782
 C          2.3104577894       -3.2239387815        0.9010767001
 C          1.8786864966       -2.1454634787        0.1378544333
 N          2.7762310939       -1.1847080116       -0.3589082953
 S          2.2640132145        0.4290592436       -0.2526928819
 O          1.5132693004        0.6279432283        0.9665977864
 O          1.6087822729        0.7942119810       -1.4827671592
 C          3.8400887487        1.2605353128       -0.1509517964
 C          4.5051036012        1.5830751443       -1.3188012295
 C          5.7473664664        2.1921161215       -1.2357565841
 C          6.3014051636        2.4657329907        0.0059712370
 C          5.6212362898        2.1380588717        1.1694198619
 C          4.3791497305        1.5275856513        1.0935273414
 H          3.8086457266        1.2632575782        1.9697568496
 H          6.0519690205        2.3551285035        2.1335426427
 H          7.2679863745        2.9400477799        0.0679590745
 H          6.2771715961        2.4510404825       -2.1381441339
 H          4.0295523720        1.3585917542       -2.2593292911
 H          3.7129931315       -1.2981131275        0.0053689766
 H          3.3606820110       -3.3490179073        1.1168962500
 H          1.7059785101       -4.9616390366        1.9815770305
 H         -0.6974895092       -4.6137275359        1.5751277331
 C         -1.8828355047       -2.6051083589        0.1531396944
 H         -2.4304870461       -3.0768874681        0.9859164511
 C         -2.3979573109       -3.2193981804       -1.1385771529
 C         -1.4995555749       -3.5903971252       -2.2758703750
 C         -2.1319858372       -4.6638560336       -1.4452364881
 H         -2.9272705594       -5.2510712052       -1.8784751375
 H         -1.4938222197       -5.2107911088       -0.7683447537
 H         -1.8627622548       -3.4161566874       -3.2768638115
 H         -0.4415840834       -3.4085761150       -2.1630667424
 H         -3.3770955789       -2.8368446739       -1.4051866621
 O         -2.1065109576       -0.5665619247       -2.0157732128
