  62
        -98.93531747
 C         -1.9975643563       -1.5721588277       -0.0908452637
 C         -1.6142184422       -0.3055202469       -0.5961441149
 C         -2.6981783524        0.6880242821       -0.6977653299
 C         -3.9607922719        0.3286346868       -0.4066322522
 C         -5.1528014878        1.2390946740       -0.4614153706
 C         -5.4175355644        1.8912045815        0.9022152115
 C         -4.1740179485        2.5191655451        1.5308625764
 H         -4.4825768926        2.9839080826        2.4698601541
 H         -3.4635473977        1.7281254583        1.7820572355
 C         -3.4787608417        3.5627748681        0.6461254242
 H         -4.1652743001        3.9080179666       -0.1276796911
 H         -3.2251352111        4.4279694730        1.2624364870
 C         -2.1785904634        3.0841521260       -0.0033235695
 H         -1.5292409403        2.6452675422        0.7579761750
 H         -1.6678894462        3.9610236505       -0.4079353244
 C         -2.3231939203        2.0723593344       -1.1472388007
 H         -3.0365287979        2.4464984586       -1.8843861608
 H         -1.3458714679        1.9736420728       -1.6288073526
 H         -6.1901223538        2.6523104065        0.7780482556
 H         -5.7996960985        1.1277653298        1.5839331008
 H         -4.9853938872        2.0043548542       -1.2165921592
 H         -6.0237799140        0.6457580365       -0.7454419120
 O         -4.2968245150       -0.9174883599        0.0165363176
 C         -3.3252985200       -1.8805188234        0.2147091246
 O         -3.7585168067       -2.9656407867        0.6546257989
 H          1.5494866577       -2.0546634252       -0.9607659610
 C          1.4485716645       -1.8881539437        0.0968895318
 C          0.2598595461       -2.1630076852        0.7533082544
 C          0.1870803949       -1.8603213302        2.1132360913
 C          1.2588143367       -1.3068744639        2.7863974031
 C          2.4478338430       -1.0522571534        2.1258178380
 C          2.5354308573       -1.3463720244        0.7732708519
 N          3.7403873301       -1.1219252211        0.0803210922
 S          4.4847007242        0.3726587798        0.1613136931
 O          5.5257007278        0.3204518055       -0.8406067001
 O          4.9167066075        0.6169781656        1.5146284491
 C          3.2495022322        1.5643154028       -0.3151828407
 C          2.5036518952        2.2023695533        0.6538815824
 C          1.5372991659        3.1128581994        0.2592919232
 C          1.3307019267        3.3606854357       -1.0881698992
 C          2.0810084598        2.7030501521       -2.0495995151
 C          3.0497161433        1.7935338385       -1.6614381312
 H          3.6649246301        1.2714786831       -2.3769525329
 H          1.9117493905        2.8942569014       -3.0973145891
 H          0.5794860113        4.0721433272       -1.3929945937
 H          0.9478686006        3.6249085850        1.0030680371
 H          2.6975426364        1.9850452721        1.6917378962
 H          3.7068303220       -1.4237728007       -0.8831275183
 H          3.2971001677       -0.6240379976        2.6328328804
 H          1.1712153109       -1.0763237479        3.8375951654
 H         -0.7382702974       -2.0543537210        2.6393040154
 C         -0.9966367135       -2.7047702275        0.1210956248
 H         -1.4676398985       -3.3523980085        0.8784121473
 C         -0.9442476233       -3.5586954989       -1.1398923319
 C         -0.2974089786       -3.1575247578       -2.4296201824
 C          0.2531262006       -4.3082256024       -1.6382284430
 H          0.0953620502       -5.3045861034       -2.0242092583
 H          1.1885909354       -4.1904748425       -1.1156020670
 H         -0.8279711496       -3.3781611389       -3.3451673905
 H          0.2320763635       -2.2189723804       -2.4657469969
 H         -1.8980198656       -4.0708987974       -1.2458509841
 O         -0.4463330683       -0.0043635185       -0.9500452666
