  62
        -98.93635290
 C          1.7097892705        0.2876938111       -0.5059204294
 C          2.9489616505        0.7965250817       -0.9606799988
 C          4.0912849704        0.6221552010       -0.0539719188
 C          3.9092757104        0.0209179799        1.1356789406
 C          4.9480455003       -0.1889600910        2.2057215105
 C          6.1155781505       -1.1291434005        1.8490299297
 C          7.3594814404       -0.4152043898        1.3055850905
 H          7.3569726002        0.6155402199        1.6625158215
 H          8.2483886305       -0.8895865600        1.7264892702
 C          7.5251690106       -0.4284424383       -0.2171849994
 H          7.8999640608       -1.4067701580       -0.5268005803
 H          8.2853950605        0.3113805121       -0.4772612787
 C          6.2609063506       -0.1450628777       -1.0285739593
 H          6.5517585607        0.0099280433       -2.0695397491
 H          5.6125972708       -1.0244492078       -1.0171473302
 C          5.4407331004        1.0645589717       -0.5397761482
 H          5.9746979002        1.6005889410        0.2436505823
 H          5.2634896504        1.7534517024       -1.3683248076
 H          5.7716449707       -1.8857511199        1.1443318890
 H          6.3955617105       -1.6469933613        2.7677844993
 H          5.3454239101        0.7841565088        2.5036949215
 H          4.4061695703       -0.6021769919        3.0589432501
 O          2.6969866004       -0.4474505007        1.5393980800
 C          1.5728537405       -0.3388434501        0.7331892700
 O          0.5393947505       -0.8230033608        1.2281264294
 H         -2.2094322593        0.1949950216       -1.7323113299
 C         -1.9444092795        0.9662414910       -1.0251023591
 C         -0.6085351396        1.2139646309       -0.7400263487
 C         -0.3064688398        2.2299104001        0.1614436523
 C         -1.3084751500        2.9484210894        0.7867450628
 C         -2.6392238500        2.6829969594        0.5152763425
 C         -2.9525120897        1.6927316903       -0.4036673285
 N         -4.3143748396        1.4225326603       -0.6759906589
 S         -5.1266739096        0.5720504490        0.5204059302
 O         -6.4824129896        0.4150998593        0.0452572999
 O         -4.9584851199        1.2623247179        1.7721999309
 C         -4.3075731594       -1.0115142109        0.5486337688
 C         -3.0648320094       -1.1042297412        1.1424760488
 C         -2.3694252192       -2.3005642010        1.0605809477
 C         -2.9312695190       -3.3796101005        0.3955076767
 C         -4.1858722690       -3.2742040401       -0.1874651034
 C         -4.8781095392       -2.0761811403       -0.1220130423
 H         -5.8502291491       -1.9455328600       -0.5697591823
 H         -4.6193771688       -4.1179682397       -0.7001586142
 H         -2.3845703889       -4.3075308504        0.3299876358
 H         -1.3829873793       -2.3579620913        1.4932470878
 H         -2.6459326696       -0.2531247217        1.6545233097
 H         -4.4558196595        0.9501117311       -1.5590347694
 H         -3.4344431901        3.2157735988        1.0101176229
 H         -1.0506790502        3.7227652387        1.4936745136
 H          0.7305682501        2.4456429701        0.3793897026
 C          0.4944519506        0.4235269317       -1.4014091794
 H          0.8433263706        0.9933143426       -2.2766075988
 C          0.0310851509       -0.9452854679       -1.8632619907
 C         -0.5122468190       -1.1457957667       -3.2459640510
 C          0.8432746611       -1.6751483468       -2.8892312513
 H          0.9727685212       -2.7415294969       -2.7827375723
 H          1.7109216210       -1.1674296363       -3.2851469408
 H         -0.5596139690       -0.2860940961       -3.8976677702
 H         -1.3153621888       -1.8539074567       -3.3864160517
 H         -0.3979117291       -1.5292631587       -1.0565295913
 O          3.0910572005        1.3804050728       -2.0694000982
