  62
        -98.94800792
 C         -1.2780861602       -1.0267275706       -0.0567989293
 C         -1.6405762500        0.0356958099        0.8047721301
 C         -2.6974537899        0.9261474399        0.3150382297
 C         -3.2049405099        0.7422534594       -0.9172625602
 C         -4.2662602297        1.5845133093       -1.5719627407
 C         -5.7000278198        1.1974159698       -1.1835650205
 C         -6.1175152897        1.5836319006        0.2359752693
 H         -5.9057292795        2.6407107206        0.3999817188
 H         -7.1999207397        1.4545635708        0.2971829494
 C         -5.4575343599        0.7464787810        1.3403900997
 H         -6.2141566300        0.4403188515        2.0661928999
 H         -5.0414975201       -0.1654122293        0.9061097502
 C         -4.3564110198        1.4723717011        2.1133548794
 H         -4.7854890896        2.3159887615        2.6584945890
 H         -3.9358185599        0.7773662714        2.8443935097
 C         -3.2083215996        1.9913578705        1.2374867291
 H         -2.3829729596        2.2901050306        1.8889358990
 H         -3.5313732195        2.8632098602        0.6684317487
 H         -6.3723048197        1.6961843196       -1.8855022707
 H         -5.8186179400        0.1198567197       -1.3183285100
 H         -4.1507931597        1.4454855287       -2.6492117206
 H         -4.0938594395        2.6360616394       -1.3393994212
 O         -2.7813632001       -0.2507173811       -1.7439689697
 C         -1.8172717503       -1.1622242811       -1.3356009293
 O         -1.5326724104       -2.0233738816       -2.1898635589
 O         -1.1017616100        0.2312810304        1.9280864000
 C         -0.2084985705       -2.0036869806        0.3919414312
 C          1.0196289196       -1.8871236813       -0.4778260989
 C          1.7911907694       -2.9761993916       -0.8638828183
 C          2.9259799694       -2.7903413822       -1.6346700984
 C          3.3331372397       -1.5229170725       -2.0102575890
 C          2.5716600599       -0.4264608321       -1.6225357196
 C          1.4231683498       -0.6193108815       -0.8727921395
 H          0.8245233500        0.2382172587       -0.6072363899
 N          2.9461176902        0.8823495876       -1.9636142502
 S          2.7050369404        2.1083197982       -0.8498721708
 O          1.3152718205        2.4897558485       -0.8111140311
 O          3.6293423106        3.1450737278       -1.2592457413
 C          3.2325245402        1.4126534989        0.7063624295
 C          4.5873974202        1.1887179987        0.8646834596
 C          5.0413139901        0.5989936992        2.0321677899
 C          4.1351601300        0.2373744298        3.0180142901
 C          2.7807544400        0.4739539800        2.8468753700
 C          2.3197667002        1.0675033695        1.6814443797
 H          1.2676527502        1.2534154597        1.5304432696
 H          2.0681169900        0.1968246905        3.6074968801
 H          4.4853937099       -0.2285943798        3.9255272703
 H          6.0955085900        0.4200041290        2.1690456300
 H          5.2601452103        1.4942921082        0.0798077095
 H          3.8397568002        0.9637430972       -2.4257239603
 H          4.2229456697       -1.3806173730       -2.6038789291
 H          3.5094469892       -3.6459226925       -1.9386898980
 H          1.4997321192       -3.9707248114       -0.5686827979
 H          0.0740564696       -1.6776994801        1.4052724810
 C         -0.7630473607       -3.4108097804        0.4710381118
 C         -0.2428580709       -4.3738214200        1.4950019323
 C         -1.6125333108       -3.7861466797        1.6473115320
 H         -2.4710170210       -4.4197722396        1.4824042823
 H         -1.7666122307       -3.0334968693        2.4069629816
 H         -0.1626129912       -5.4166308302        1.2274228628
 H          0.5325566091       -4.0260805999        2.1605398922
 H         -1.0534048208       -3.7973389508       -0.4992499980
