  62
        -98.94063109
 C         -2.6144410431       -0.5359726907       -0.4500402916
 C         -3.0645688631        0.3205738182        0.5894944944
 C         -3.0125453999        1.7623105480        0.3251161616
 C         -2.5705536768        2.1923936118       -0.8700273304
 C         -2.4234109426        3.6320166747       -1.2668533530
 C         -1.0113768882        4.1511359186       -0.9639737907
 C         -0.5261528303        3.8452395593        0.4534998384
 H         -0.3727778471        2.7672764069        0.5558872304
 H          0.4574957514        4.3077165003        0.5645920485
 C         -1.4542085872        4.3475296687        1.5685273103
 H         -0.8421336710        4.8104824619        2.3454400832
 H         -2.1195053989        5.1179305919        1.1764339209
 C         -2.2848235494        3.2584480326        2.2505753735
 H         -1.6305183322        2.4319765978        2.5424189482
 H         -2.7099441839        3.6790904354        3.1659189230
 C         -3.4458846510        2.6876173557        1.4261804937
 H         -4.0536939551        3.5038236957        1.0306246309
 H         -4.0675284548        2.0867730431        2.0963321331
 H         -0.3127017992        3.6871078131       -1.6639669034
 H         -0.9979850008        5.2301237780       -1.1303834822
 H         -3.1629376929        4.2268125369       -0.7343515618
 H         -2.6073849105        3.7130755861       -2.3396396365
 O         -2.1668266531        1.3475440800       -1.8491031997
 C         -2.1273511365       -0.0255528182       -1.6531109045
 O         -1.6485336415       -0.6448872480       -2.6261752083
 O         -3.4958357148       -0.1108902957        1.6928575143
 C         -2.5983609109       -2.0220111526       -0.1273365792
 C         -1.2654538920       -2.3771010237        0.4894885028
 C         -1.1771974754       -3.0121295345        1.7220677339
 C          0.0540567875       -3.2442521892        2.3116428594
 C          1.2203283297       -2.8292483358        1.6934484118
 C          1.1395029661       -2.2055219908        0.4573541190
 C         -0.0901837401       -2.0024604907       -0.1455593075
 H         -0.1364392394       -1.5062739444       -1.1045565558
 N          2.3273531584       -1.6958510106       -0.1424170781
 S          2.6243155869       -0.1328845330        0.4537681765
 O          2.6388599371       -0.2029523769        1.8929794083
 O          1.6968831379        0.8108530015       -0.1342585220
 C          4.2739631251        0.1648725853       -0.1523304284
 C          5.3302905979       -0.4425461124        0.4988871215
 C          6.6144886186       -0.2487713124        0.0165629243
 C          6.8195635370        0.5436533477       -1.1033796802
 C          5.7492246310        1.1472643040       -1.7455035709
 C          4.4615614805        0.9556862763       -1.2687991808
 H          3.5998050081        1.4096054461       -1.7321819322
 H          5.9105465503        1.7649408621       -2.6143684417
 H          7.8200111491        0.6936955049       -1.4773881643
 H          7.4496914298       -0.7147617256        0.5139555358
 H          5.1218840675       -1.0415879780        1.3695004772
 H          2.2024547074       -1.5994408922       -1.1438272585
 H          2.1826540752       -2.9583455931        2.1601696885
 H          0.1036789544       -3.7320645563        3.2731852190
 H         -2.0844308556       -3.2968933241        2.2344219338
 H         -3.3687064617       -2.1626773258        0.6433627596
 C         -2.9177011854       -2.9290891752       -1.2974912419
 C         -3.4510305949       -4.3029505660       -1.0269838573
 C         -4.3473387655       -3.2517273667       -1.6077589908
 H         -4.6412176378       -3.3329111399       -2.6432183474
 H         -5.1058169128       -2.8191604085       -0.9717323797
 H         -3.1286846215       -5.1126665777       -1.6630693434
 H         -3.6056874661       -4.5866068788        0.0028488860
 H         -2.2440792006       -2.8044226719       -2.1348995946
