  62
        -98.93659673
 C         -1.3878129299       -1.3996047596        0.2795750396
 C         -2.0747620493       -0.9290486297       -0.8634755108
 C         -3.1371236389        0.0658585009       -0.6237425815
 C         -3.3939556290        0.4761255216        0.6325230583
 C         -4.4351726986        1.4368711424        1.1676682976
 C         -5.1221321478        2.4400880824        0.2438438570
 C         -4.1981624871        3.4953826816       -0.3617854032
 H         -4.7862792866        4.1072800117       -1.0493538536
 H         -3.8382307170        4.1474192118        0.4381047467
 C         -2.9775262072        2.9538932207       -1.1026656326
 H         -2.3111231776        2.4562656106       -0.3944176622
 H         -2.4296515366        3.8066726402       -1.5135412428
 C         -3.2837100574        1.9972119404       -2.2546062523
 H         -3.9993327569        2.4614586105       -2.9357401927
 H         -2.3533283673        1.8388638796       -2.8071468520
 C         -3.8180954082        0.6119071908       -1.8449088719
 H         -4.8968923683        0.6264971914       -1.7079898122
 H         -3.5992618084       -0.0869821396       -2.6574691515
 H         -5.8650110477        2.9628962730        0.8524242866
 H         -5.6663345779        1.9222792823       -0.5404474529
 H         -5.2071697791        0.8141106630        1.6332164676
 H         -3.9445977386        1.9797913124        1.9815507675
 O         -2.7057326596       -0.0132591183        1.7048710487
 C         -1.6914172200       -0.9452799589        1.5615007094
 O         -1.1442082905       -1.2792127488        2.6298799797
 H          0.4045195611        0.1677990892       -0.3248388105
 C          1.0892329509       -0.5196895614       -0.8066333800
 C          0.8727081601       -1.8857173312       -0.6964258495
 C          1.7756298498       -2.7430736320       -1.3170014689
 C          2.8580775503       -2.2449769028       -2.0209159688
 C          3.0662601211       -0.8809760830       -2.1280977393
 C          2.1650442414       -0.0182099423       -1.5239151699
 N          2.3939733921        1.3810136076       -1.5974126704
 S          3.5150521521        1.9107791574       -0.4665495503
 O          3.4582073329        3.3545307075       -0.4891017909
 O          4.7876292019        1.3117881666       -0.7740119697
 C          2.8910644113        1.2847295084        1.0818627798
 C          1.9737666115        2.0416862092        1.7832144992
 C          1.3858008909        1.5026040300        2.9159364092
 C          1.7104375801        0.2157553000        3.3168981399
 C          2.6332654099       -0.5307674308        2.6010786404
 C          3.2290783605        0.0038634284        1.4701816204
 H          3.9463069704       -0.5477373822        0.8840462308
 H          2.8779263893       -1.5330627308        2.9137462409
 H          1.2271045696       -0.2128177294        4.1801352899
 H          0.6642250211        2.0772672706        3.4747541988
 H          1.7429342821        3.0363355992        1.4345452987
 H          1.5471094624        1.9200648981       -1.4781360509
 H          3.9126848514       -0.4726072037       -2.6553150892
 H          3.5497651601       -2.9271078334       -2.4909488283
 H          1.6308227992       -3.8087428919       -1.2425674885
 C         -0.2692204504       -2.4108513603        0.1420723104
 H          0.1168628592       -2.5707507101        1.1604914805
 C         -0.8122284010       -3.7272421902       -0.3834050693
 C         -0.2839470618       -5.0329969003        0.1279431114
 C         -1.6538607517       -4.5730550994        0.5231236009
 H         -2.5126882218       -5.0787564891        0.1080912308
 H         -1.8028523718       -4.2172881989        1.5325571507
 H          0.4902689480       -5.0035400504        0.8798790716
 H         -0.2024264620       -5.8607443506       -0.5605488382
 H         -1.1070802606       -3.6666853805       -1.4245651294
 O         -1.8176456792       -1.3137351403       -2.0340639105
