  62
        -98.93943232
 C          2.4495241699        1.2253933274       -0.0060461409
 C          3.1409036072        0.4325498188        0.9374991134
 C          3.7740064959       -0.7952430426        0.4265334855
 C          3.6463400885       -1.1001197594       -0.8767370844
 C          4.1488098140       -2.3313014134       -1.5785260888
 C          3.0516396515       -3.4084543072       -1.6310792161
 C          2.9904057975       -4.3267294408       -0.4107566842
 H          2.0945213762       -4.9435861035       -0.5145406777
 H          3.8535196327       -4.9956926927       -0.4209808701
 C          2.9402389875       -3.6145428193        0.9437116829
 H          2.2497231422       -2.7700804643        0.8871353255
 H          2.5298551021       -4.3149771520        1.6740579853
 C          4.3185877615       -3.1398518345        1.4286897431
 H          5.0890043673       -3.6105153838        0.8183382651
 H          4.4785810670       -3.4861034421        2.4517427391
 C          4.5261121067       -1.6171617840        1.4376069050
 H          4.2161014921       -1.2136121424        2.4067274487
 H          5.5949081647       -1.4025420605        1.3364142374
 H          2.0894942615       -2.9039606948       -1.7599290314
 H          3.2124271861       -4.0307061998       -2.5138141293
 H          4.3899167345       -2.0315424984       -2.6003778742
 H          5.0479763595       -2.7087468978       -1.1006863211
 O          2.9602014972       -0.3144891291       -1.7512398873
 C          2.3335929418        0.8516710662       -1.3451247954
 O          1.7273977554        1.4523590813       -2.2513224783
 H          0.3010146277        0.4705424628        1.3994500796
 C         -0.3243001706        1.1551469612        0.8382821592
 C          0.2521559208        2.2917809100        0.2826409451
 C         -0.5591641612        3.1612478376       -0.4324556000
 C         -1.9054952123        2.8831038442       -0.5997756080
 C         -2.4704734174        1.7439859606       -0.0569271163
 C         -1.6690758232        0.8723317183        0.6695368894
 N         -2.2360657466       -0.2925238860        1.2281512704
 S         -2.9125332450       -1.3793901062        0.1344183772
 O         -2.8651009679       -2.6646492344        0.7980564877
 O         -2.2695756498       -1.2998113073       -1.1577238042
 C         -4.6071229184       -0.8482428902        0.0163101137
 C         -5.1303436344       -0.4767636481       -1.2064441764
 C         -6.4528145905       -0.0654639058       -1.2711648333
 C         -7.2230407393       -0.0334696069       -0.1186709469
 C         -6.6824448146       -0.4119910906        1.1014341039
 C         -5.3618837077       -0.8254384585        1.1730085921
 H         -4.9030250211       -1.1317017290        2.0981503482
 H         -7.2846404394       -0.3856924347        1.9952131532
 H         -8.2509325211        0.2887942755       -0.1719395584
 H         -6.8745655761        0.2290533331       -2.2187008371
 H         -4.4900783995       -0.5112141343       -2.0736308853
 H         -1.5981266133       -0.7851833384        1.8381904609
 H         -3.5164111458        1.5218858338       -0.1924823951
 H         -2.5229743532        3.5631467886       -1.1664059884
 H         -0.1354354648        4.0486019073       -0.8726375686
 C          1.7378934425        2.4810674729        0.4682691669
 H          1.9432334796        2.5431777405        1.5471430556
 C          2.2925222052        3.7159654253       -0.2066858023
 C          2.1678433196        5.0521872809        0.4606505341
 C          3.5034059668        4.3784193862        0.3764431695
 H          4.2448976046        4.7804127913       -0.2974158233
 H          3.9194987033        3.9489818849        1.2761678249
 H          1.9939796490        5.9216405876       -0.1548299144
 H          1.6771287411        5.0857783825        1.4214671110
 H          2.2186638409        3.6710110294       -1.2871192080
 O          3.2127704289        0.7285996575        2.1622561652
