  62
        -98.93573881
 C          1.9497604383        1.6326574425        0.2353275406
 C          1.6556072623        0.5002454455       -0.5644659275
 C          2.7329475619       -0.5010576114       -0.6883401800
 C          3.9058197862       -0.2951336947       -0.0646046224
 C          5.0767733863       -1.2363555054       -0.0607437513
 C          4.8213536855       -2.4029333100        0.9145268658
 C          4.6998754697       -3.7698692578        0.2405059043
 H          5.6959591964       -4.1149157267       -0.0446288185
 H          4.3101963607       -4.4684453269        0.9839024170
 C          3.8115209373       -3.8199271272       -1.0061954989
 H          3.6098135157       -4.8733918484       -1.2114042807
 H          4.3628702747       -3.4370154424       -1.8662976706
 C          2.4754431330       -3.0725965082       -0.9038067560
 H          2.1763053783       -2.9728975710        0.1400301492
 H          1.7147784801       -3.6759982206       -1.4042333378
 C          2.4610703013       -1.6860930465       -1.5749384789
 H          3.1636048604       -1.6806557065       -2.4133669716
 H          1.4632374400       -1.5050163616       -1.9865574632
 H          5.6321325230       -2.4518860781        1.6429192774
 H          3.9093059781       -2.1879029708        1.4751021025
 H          5.2509354562       -1.6098877396       -1.0675771764
 H          5.9497615267       -0.6636093052        0.2534900741
 O          4.1422340343        0.7931404254        0.7128855996
 C          3.1784413238        1.7693397474        0.8904748908
 O          3.5296288282        2.6986144332        1.6440142503
 H         -1.2162611977        2.3215611036       -1.1221945103
 C         -1.3934698820        2.0340124565       -0.0978779031
 C         -0.3922274489        2.2011218807        0.8444330162
 C         -0.6303778094        1.7910965856        2.1523196826
 C         -1.8479501580        1.2402522893        2.5088172011
 C         -2.8426820983        1.0630932443        1.5631101929
 C         -2.6021089812        1.4458309185        0.2498334773
 N         -3.5789242569        1.2215530654       -0.7329824035
 S         -4.4775212770       -0.1843135703       -0.6644377496
 O         -4.8376965988       -0.4701080630       -2.0368741330
 O         -5.5893791540        0.0046166529        0.2373088420
 C         -3.4232850875       -1.4771364206       -0.0218935132
 C         -3.9817916342       -2.3856566379        0.8563034877
 C         -3.2004159744       -3.4177333236        1.3492084228
 C         -1.8739267080       -3.5221905635        0.9602923119
 C         -1.3287492076       -2.6015155403        0.0799921971
 C         -2.1060831994       -1.5706620195       -0.4240909234
 H         -1.6711551618       -0.8450697018       -1.0929376822
 H         -0.2946577463       -2.6649773104       -0.2175041023
 H         -1.2606286508       -4.3211948145        1.3463435846
 H         -3.6256970181       -4.1320849487        2.0357402283
 H         -5.0135429192       -2.2586357786        1.1422048065
 H         -3.2589396298        1.4042642052       -1.6728819338
 H         -3.7963411723        0.6315523563        1.8224330313
 H         -2.0233294826        0.9379765484        3.5299903943
 H          0.1541418205        1.9059774199        2.8875613695
 C          0.9557984705        2.7604441029        0.4685082764
 H          1.3509536453        3.3077997322        1.3386304069
 C          0.8709383817        3.7653199697       -0.6726028655
 C          2.1156595550        4.2344108189       -1.3634313533
 C          1.1140716811        3.4042774848       -2.1058732821
 H          0.5109224213        3.8866150925       -2.8617030562
 H          1.3652122637        2.3813016569       -2.3373869014
 H          3.0480333480        3.7725004158       -1.0722170256
 H          2.2060211669        5.2812725430       -1.6109227669
 H          0.1109619599        4.5182592419       -0.4853656450
 O          0.5666346455        0.3173755232       -1.1667911301
