  62
        -98.93472883
 C         -2.5888520078       -1.2035197263       -0.3790563483
 C         -2.0945201953        0.0112719746       -0.9060551246
 C         -2.9534961162        1.2044197628       -0.7516407562
 C         -4.1479622796        1.0735266402       -0.1459947171
 C         -5.1734978519        2.1370249422        0.1452202893
 C         -4.7834551027        3.0271448364        1.3354683223
 C         -3.3298012536        3.4925872899        1.3386857872
 H         -3.1546505284        4.0290432715        2.2751584586
 H         -2.6718701803        2.6209491540        1.3413707798
 C         -2.9409632773        4.4202164817        0.1897706313
 H         -3.5822497012        5.3041980848        0.2104806412
 H         -1.9150945260        4.7491756287        0.3754529051
 C         -2.9956838580        3.8101615764       -1.2127471955
 H         -2.4556226281        4.4866929121       -1.8814698737
 H         -4.0164778253        3.7611815014       -1.5820522477
 C         -2.3249783285        2.4459008867       -1.3378906078
 H         -2.1774622945        2.2255084844       -2.4019313005
 H         -1.3157153724        2.5016624693       -0.9123639577
 H         -4.9522296480        2.4584171706        2.2532036396
 H         -5.4455724660        3.8945418585        1.3492375400
 H         -6.1015642210        1.6161486895        0.3909187163
 H         -5.3546163868        2.7357551328       -0.7423117182
 O         -4.5861099922       -0.1227766730        0.3422436482
 C         -3.8273206540       -1.2710605293        0.2618736819
 O         -4.3547072518       -2.2763463212        0.7792910831
 O         -0.9842239096        0.1197374450       -1.4917990124
 C         -1.7712388497       -2.4852660153       -0.4325717548
 C         -0.5767722527       -2.2955933989        0.4702274592
 C         -0.7317360874       -2.4644262748        1.8434441754
 C          0.3140029476       -2.2038400166        2.7090941379
 C          1.5322292096       -1.7578710619        2.2258876210
 C          1.6926280508       -1.5794589534        0.8590332367
 C          0.6487159628       -1.8647261840       -0.0115892329
 H          0.7822216661       -1.7064756307       -1.0697389868
 N          2.9238538944       -1.1106069454        0.3552932948
 S          3.5452387374        0.2689109140        1.1122930328
 O          4.2376739541       -0.1442685185        2.3082059910
 O          2.5032934111        1.2544613633        1.2993116678
 C          4.7211728007        0.8238947261       -0.1061209658
 C          6.0360644856        0.4096046924       -0.0162524060
 C          6.9345473859        0.8191449691       -0.9888599835
 C          6.5049696489        1.6293588967       -2.0291432353
 C          5.1814683715        2.0373528552       -2.1056721726
 C          4.2774841912        1.6307748784       -1.1370378925
 H          3.2409384410        1.9302695718       -1.1542144759
 H          4.8498705580        2.6685102661       -2.9144796347
 H          7.2054585054        1.9474649045       -2.7850646620
 H          7.9644586208        0.5057683168       -0.9326437157
 H          6.3234331103       -0.2139872222        0.8140264043
 H          2.8676486662       -0.9520598165       -0.6427786720
 H          2.3490396121       -1.5243316340        2.8898369091
 H          0.1788075040       -2.3389223727        3.7719768396
 H         -1.6924940648       -2.7832725524        2.2245535286
 H         -2.4085567869       -3.2661320094        0.0028171880
 C         -1.4205284708       -2.8765788376       -1.8524908820
 C         -0.9197733811       -4.2614528566       -2.1288383076
 C         -2.2916669737       -3.8571952746       -2.5759338517
 H         -2.4686000450       -3.7076543184       -3.6304803536
 H         -3.1428072263       -4.2564534855       -2.0437850129
 H         -0.1535586622       -4.3939415571       -2.8772018629
 H         -0.8380666186       -4.9367474175       -1.2906398054
 H         -1.0095607097       -2.0612172891       -2.4341474565
