  62
        -98.94619144
 C          1.7938483221        1.0992178221       -0.2718106430
 C          3.1457777488        1.3013138461        0.0960200124
 C          4.0939434882        0.2731787859       -0.3529507675
 C          3.6425147329       -0.7647874799       -1.0809308813
 C          4.4895475259       -1.9062391081       -1.5625454340
 C          4.4991189855       -3.0588982257       -0.5487063217
 C          4.7966111455       -2.6177279790        0.8843133806
 H          3.9766804381       -1.9906372126        1.2417066443
 H          4.8085986426       -3.5158776746        1.5054993335
 C          6.1221385571       -1.8622059252        1.0532081079
 H          6.6379956575       -2.2522319175        1.9332119676
 H          6.7663536707       -2.0465419947        0.1927418866
 C          5.9714217355       -0.3536675298        1.2587096035
 H          5.2551380597       -0.1630280838        2.0619314792
 H          6.9373979594        0.0432954912        1.5820052048
 C          5.5377639297        0.4492885371        0.0255420676
 H          5.6580636746        1.5107347437        0.2615234764
 H          6.1893758080        0.2099281685       -0.8172960218
 H          3.5186621382       -3.5402077296       -0.5622426606
 H          5.2421717567       -3.7921518064       -0.8673862399
 H          4.0758917103       -2.2667159069       -2.5058825851
 H          5.5037879360       -1.5513136487       -1.7346989712
 O          2.3385252040       -0.9181970168       -1.4251202348
 C          1.3801802352        0.0007125606       -1.0238057211
 O          0.2232605005       -0.2710571556       -1.3950076819
 O          3.5384532098        2.2910355369        0.7704421019
 C          0.7546804843        2.1184848237        0.1597223385
 C         -0.3045367558        1.4498763322        0.9998526749
 C          0.0913530853        0.7463255988        2.1359210874
 C         -0.8376467170        0.1144212310        2.9382999868
 C         -2.1843619377        0.1627948790        2.6200585441
 C         -2.5909242069        0.8648866997        1.4932166407
 C         -1.6549087317        1.5119999060        0.6959035499
 H         -2.0031761243        2.0425751486       -0.1737669924
 N         -3.9552750315        0.9537126804        1.1545401206
 S         -4.4648596824        0.4062043569       -0.3448096594
 O         -3.8197661331        1.1575677848       -1.3885838219
 O         -5.9084977011        0.4937026656       -0.2930146405
 C         -3.9776975293       -1.3094953118       -0.3790726914
 C         -4.9174437390       -2.2635988316       -0.0367837481
 C         -4.5388490569       -3.5949335398        0.0094140656
 C         -3.2281732736       -3.9479193269       -0.2759753361
 C         -2.2979298231       -2.9773608193       -0.6127309285
 C         -2.6691542535       -1.6420124507       -0.6659338003
 H         -1.9533988032       -0.8792155683       -0.9299262763
 H         -1.2759004963       -3.2397726587       -0.8365953926
 H         -2.9294641857       -4.9837755340       -0.2374451263
 H         -5.2623929520       -4.3508983463        0.2690488883
 H         -5.9251087668       -1.9427498288        0.1731768862
 H         -4.5720307961        0.5832963793        1.8647444879
 H         -2.9137709236       -0.3343735332        3.2415276319
 H         -0.5132748266       -0.4252654704        3.8151532149
 H          1.1443672713        0.7048953625        2.3797247660
 H          1.2955268789        2.8343203152        0.7966565570
 C          0.2047206915        2.8593665892       -1.0402591776
 C         -0.3419971645        4.2453101333       -0.8799935150
 C          0.9643643105        4.0312317855       -1.5822791292
 H          1.0053682984        4.1689798995       -2.6524160764
 H          1.8731502778        4.3127387316       -1.0703903078
 H         -1.2028570023        4.5282798341       -1.4671375113
 H         -0.3213573409        4.6792082221        0.1083502746
 H         -0.2773867481        2.2037439129       -1.7576085813
