  62
        -98.93483201
 C         -2.2162872801       -1.2350508528        0.4002203110
 C         -2.5351925702       -0.3534993876       -0.6586800181
 C         -3.4095928249        0.7895792974       -0.3252332507
 C         -3.8185042321        0.9707341305        0.9433964098
 C         -4.6491131687        2.0653181446        1.5806231883
 C         -5.4580195424        3.0346700034        0.7225791503
 C         -6.6279147901        2.4002913777       -0.0288291182
 H         -7.0659047162        3.1588443512       -0.6811475905
 H         -7.3890230701        2.1066500089        0.6983567432
 C         -6.2853425003        1.1668718875       -0.8604848380
 H         -7.2061551181        0.8181300955       -1.3357267465
 H         -5.9394161859        0.3663039033       -0.2034119250
 C         -5.2499433256        1.3878651272       -1.9614067017
 H         -5.5649272194        2.2138113711       -2.6020120224
 H         -5.2217874774        0.4821969848       -2.5732643439
 C         -3.8153307190        1.6630914580       -1.4778720156
 H         -3.6738489428        2.7129186059       -1.2314430114
 H         -3.1313885183        1.4262048732       -2.2983217694
 H         -4.8046681836        3.5642793325        0.0353265035
 H         -5.8706805262        3.7827149421        1.4050193359
 H         -5.3223235941        1.5583908964        2.2792859071
 H         -3.9502477767        2.6458088319        2.1934969279
 O         -3.4499119783        0.1154499584        1.9420878240
 C         -2.6649487665       -0.9952806162        1.7010974902
 O         -2.4408423889       -1.6907880422        2.7116342268
 H          0.0267093681       -0.6200431027       -1.1594449301
 C          0.6501488552       -1.1041560747       -0.4215989927
 C          0.1054073735       -2.1038074134        0.3737116632
 C          0.9159461388       -2.7134977688        1.3229869299
 C          2.2381765973       -2.3300754195        1.4690324919
 C          2.7767089695       -1.3343560619        0.6738655558
 C          1.9724941661       -0.7151028255       -0.2742163245
 N          2.5097453468        0.3054594523       -1.0843308798
 S          3.1570898220        1.6331062252       -0.2796851537
 O          2.5309945397        1.8257781128        1.0090613517
 O          3.0614061462        2.7337390107       -1.2137417621
 C          4.8715104195        1.2000923663       -0.0703643628
 C          5.4264668249        1.1702839410        1.1938998717
 C          6.7651143593        0.8360875695        1.3299620162
 C          7.5203656282        0.5403272645        0.2054657908
 C          6.9480817816        0.5767195280       -1.0575891072
 C          5.6109011621        0.9106260546       -1.2006936797
 H          5.1279696277        0.9543177602       -2.1625747668
 H          7.5386951311        0.3460063450       -1.9294771961
 H          8.5613625513        0.2799985182        0.3142016977
 H          7.2114794217        0.8073437359        2.3110026527
 H          4.7979381993        1.4022366426        2.0390360079
 H          1.8638523107        0.6182287688       -1.7964445080
 H          3.8042191977       -1.0287040744        0.7862138266
 H          2.8556690417       -2.8101013317        2.2127167154
 H          0.4971762122       -3.4772627802        1.9618648219
 C         -1.3486168290       -2.4735578185        0.2309936629
 H         -1.6100393178       -3.1215383802        1.0821690435
 C         -1.6586012763       -3.2485874147       -1.0432184009
 C         -0.6863531493       -3.4281301445       -2.1670139608
 C         -1.0141038927       -4.5837680388       -1.2735053259
 H         -1.6165196443       -5.3903464205       -1.6628282903
 H         -0.2598730463       -4.8951967389       -0.5664465217
 H          0.2899751358       -2.9784144344       -2.0789283216
 H         -1.0803897223       -3.4175342118       -3.1718918691
 H         -2.7024909310       -3.1595641751       -1.3256954046
 O         -2.1141558720       -0.4844456756       -1.8382206298
