  62
        -98.94404531
 C         -0.6689132150       -2.0948202129       -0.6397772397
 C         -1.0120755225       -0.8386747995       -1.2005509803
 C         -2.3995711166       -0.3978297247       -0.9810880049
 C         -3.2349143719       -1.1578536318       -0.2528692709
 C         -4.6566445142       -0.8066053031        0.0765831946
 C         -4.7596677336       -0.0571602840        1.4114128465
 C         -3.7961439632        1.1230973231        1.5398862016
 H         -4.0037784396        1.6082254119        2.4968281210
 H         -2.7681468283        0.7542578713        1.5916253821
 C         -3.9009829820        2.1571525183        0.4104771008
 H         -3.8776726765        3.1557327807        0.8523498558
 H         -4.8565230697        2.0517460665       -0.1054199699
 C         -2.7571581710        2.0907957128       -0.6032367606
 H         -1.8071655785        2.0438672812       -0.0649100229
 H         -2.7642166761        3.0127610933       -1.1907883187
 C         -2.8032802454        0.9160335192       -1.5878024965
 H         -3.7956917818        0.8470409620       -2.0384941571
 H         -2.0752733951        1.1173549935       -2.3790911128
 H         -5.7860702229        0.2969244857        1.5279039844
 H         -4.5482148205       -0.7592969159        2.2213088121
 H         -5.0684847441       -0.1975208522       -0.7258399103
 H         -5.2293868031       -1.7332193817        0.1477653841
 O         -2.8619741376       -2.3418452158        0.2981902627
 C         -1.5778591329       -2.8280105538        0.1266054728
 O         -1.3692877380       -3.9241819661        0.6879920753
 O         -0.2253282884       -0.1137775268       -1.8616020236
 C          0.7100241077       -2.7227252148       -0.7774208715
 C          1.6202762988       -2.2292673988        0.3172174397
 C          2.3759630873       -3.1061354092        1.0859719552
 C          3.1857097417       -2.6273550998        2.1015909478
 C          3.2457446372       -1.2731145615        2.3776614482
 C          2.4935172977       -0.3883640249        1.6121850328
 C          1.7026678673       -0.8692970647        0.5805612386
 H          1.1222403226       -0.1804534348       -0.0094478660
 N          2.5431076716        0.9934190544        1.8417608826
 S          1.2120615411        1.9699548929        1.5640106310
 O          1.3940144084        3.0934619629        2.4619894209
 O         -0.0279934492        1.2453721838        1.7244770707
 C          1.3862093686        2.5648391508       -0.1064191544
 C          0.4947212593        3.5410042957       -0.5061161864
 C          0.5700378345        4.0360609785       -1.7970546960
 C          1.5370252796        3.5517898529       -2.6638712081
 C          2.4350048104        2.5852793902       -2.2425184475
 C          2.3643638379        2.0858079480       -0.9514467572
 H          3.0526374378        1.3326124432       -0.6058174547
 H          3.1891890122        2.2103671117       -2.9157313511
 H          1.5906713893        3.9305815390       -3.6724397318
 H         -0.1263466312        4.7925364226       -2.1220479649
 H         -0.2382793456        3.8946884460        0.2018010747
 H          3.0579252578        1.2837959949        2.6592283619
 H          3.8648841148       -0.9014626101        3.1798690043
 H          3.7672038935       -3.3172286973        2.6942478326
 H          2.3110119527       -4.1677180835        0.8970782162
 H          0.5535821097       -3.8014916059       -0.6164845909
 C          1.3036898343       -2.5524541876       -2.1697309508
 C          2.4753620049       -1.6713751973       -2.4684817866
 C          2.6369796345       -3.1597025459       -2.4935937176
 H          2.7621529096       -3.6548549526       -3.4445525938
 H          3.1837041545       -3.6157770084       -1.6819272168
 H          2.4651894872       -1.1294045376       -3.4012575636
 H          2.9206325687       -1.1254203780       -1.6523962803
 H          0.5417812764       -2.6141470710       -2.9399045880
