  62
        -98.93486129
 C         -1.6941718879       -0.9971988525        0.3088890619
 C         -2.1489522544        0.3403337779        0.2446603428
 C         -3.6101395342        0.5528053214        0.3546193360
 C         -4.4130890303       -0.5086964079        0.5491683244
 C         -5.9151664854       -0.5433588392        0.6485832009
 C         -6.6036040497       -0.3897878928       -0.7168590047
 C         -6.0231350950        0.7041265514       -1.6090726930
 H         -4.9645074287        0.5022479579       -1.7825779792
 H         -6.5266308125        0.6446596374       -2.5776671147
 C         -6.1883156928        2.1281548728       -1.0835593724
 H         -5.8195674401        2.8042055944       -1.8593805833
 H         -7.2509278627        2.3364883306       -0.9402385565
 C         -5.4486272951        2.4519968606        0.2165434550
 H         -5.4470470395        3.5403986439        0.3270081300
 H         -5.9771141142        2.0559494604        1.0795434269
 C         -3.9887521204        2.0102930791        0.2452687604
 H         -3.4817115956        2.3902595574       -0.6494454477
 H         -3.4894727270        2.5058087028        1.0869363251
 H         -7.6650458209       -0.2003142374       -0.5484139387
 H         -6.5108676500       -1.3386458548       -1.2510060844
 H         -6.1780330718       -1.5196251064        1.0620526259
 H         -6.2619684663        0.2147093792        1.3444644008
 O         -3.9229084879       -1.7775102804        0.6529075944
 C         -2.5758027200       -2.0552878389        0.5433514650
 O         -2.2864941593       -3.2606968846        0.6804648853
 H          1.6555466395        0.5061612718       -0.6238544897
 C          1.5486386830        0.4405632662        0.4451724818
 C          0.6224521969       -0.4203515626        1.0107612849
 C          0.4730210333       -0.4244226628        2.3955969463
 C          1.2229983007        0.4204314282        3.1896919655
 C          2.1565954013        1.2707033521        2.6225890316
 C          2.3131495367        1.2820758874        1.2424190814
 N          3.2500630422        2.1297620230        0.6364753022
 S          4.0656153181        1.6394233409       -0.7319396856
 O          5.2933226751        2.4069046784       -0.7123624299
 O          3.2474332121        1.8029698870       -1.9067233954
 C          4.4280850282       -0.0902637978       -0.4774596935
 C          5.0977837910       -0.4623507384        0.6714490184
 C          5.3777096502       -1.8028159279        0.8803650038
 C          4.9878560684       -2.7448663574       -0.0593016746
 C          4.3243226999       -2.3551461847       -1.2120540484
 C          4.0398855510       -1.0154145888       -1.4244857722
 H          3.5215026213       -0.6692586749       -2.3046371682
 H          4.0240153478       -3.0888016862       -1.9434272200
 H          5.2032814052       -3.7886796388        0.1059908184
 H          5.8964184028       -2.1092746859        1.7743323729
 H          5.3954013985        0.2932907562        1.3798314853
 H          3.8352620869        2.6540368497        1.2689770459
 H          2.7458235910        1.9308884413        3.2405972237
 H          1.0875954704        0.4132387018        4.2607874932
 H         -0.2536020696       -1.0922695832        2.8387316958
 C         -0.2238554915       -1.3603001971        0.1895805434
 H         -0.1455594075       -2.3626205178        0.6425228796
 C          0.2682482922       -1.4942932527       -1.2436535710
 C         -0.6473280990       -1.9399018775       -2.3432000293
 C         -0.1310663105       -0.5338190811       -2.3213736447
 H          0.6109533718       -0.2395204812       -3.0501198902
 H         -0.8085103605        0.2621999065       -2.0550072364
 H         -0.2622821122       -2.6200344706       -3.0878655026
 H         -1.6852213699       -2.1078446472       -2.0940992848
 H          1.2855853053       -1.8722185712       -1.2822448943
 O         -1.3905825073        1.3338365969        0.0972685814
