  62
        -98.94565925
 C         -2.5437894943       -0.6047949414        0.1773395334
 C         -1.9999782664        0.2004876330       -0.8526241099
 C         -2.2152689842        1.6452872172       -0.7070483550
 C         -2.9126041687        2.1177897313        0.3420534943
 C         -3.2193761391        3.5646090119        0.6197189095
 C         -2.0944962946        4.3087871974        1.3531574297
 C         -0.8509877651        4.6032910298        0.5127256095
 H         -1.1480569894        5.1048405992       -0.4085474613
 H         -0.2385129754        5.3041730029        1.0831946720
 C         -0.0050498247        3.3662295902        0.1776964233
 H          1.0499902205        3.5811701663        0.3600649760
 H         -0.2814333893        2.5456464973        0.8443322338
 C         -0.1263465269        2.8898954101       -1.2695339517
 H          0.2707269983        3.6545032630       -1.9396967495
 H          0.4818630698        1.9892460215       -1.3850641796
 C         -1.5586935183        2.5521526451       -1.7029197782
 H         -2.1409590281        3.4634227850       -1.8351874458
 H         -1.5122868415        2.0211141544       -2.6563683484
 H         -1.8098068204        3.7291692615        2.2346626460
 H         -2.5056361135        5.2593071016        1.7008652595
 H         -3.4482372770        4.0772840133       -0.3147106628
 H         -4.1099652530        3.5789705585        1.2517510306
 O         -3.4437190138        1.3056347553        1.2957523106
 C         -3.2491716626       -0.0667600929        1.2523842514
 O         -3.7422984352       -0.6875400942        2.2170171501
 H         -0.3468734212       -0.9784270091        1.4860487744
 C          0.0256344324       -1.7452273788        0.8171033497
 C         -0.8763473887       -2.4415425134        0.0217937716
 C         -0.3860910922       -3.4272821471       -0.8245861173
 C          0.9707070170       -3.6976809813       -0.8723013918
 C          1.8650101546       -3.0013434336       -0.0807527497
 C          1.3869711418       -2.0101702628        0.7689268464
 N          2.2637766447       -1.3089049386        1.6121578253
 S          3.7674659659       -0.7574914839        1.1469437597
 O          4.5670024906       -1.8717783807        0.7033843563
 O          4.2594299224       -0.0321980741        2.2955263716
 C          3.5224021700        0.3784517651       -0.2069402301
 C          3.6540417199        1.7318065059        0.0344487361
 C          3.4891701014        2.6211608436       -1.0148779815
 C          3.1838448485        2.1444635360       -2.2804079626
 C          3.0449074698        0.7834355570       -2.5048272997
 C          3.2196349286       -0.1122375265       -1.4617956477
 H          3.1276527351       -1.1755705741       -1.6086993757
 H          2.7990223702        0.4144051536       -3.4875131572
 H          3.0523560460        2.8365540437       -3.0969622244
 H          3.5992584516        3.6800815523       -0.8441344618
 H          3.8963145475        2.0566908719        1.0335854753
 H          1.8099236029       -0.6311244884        2.2053320748
 H          2.9218843739       -3.2126074749       -0.1040028916
 H          1.3385985444       -4.4666973993       -1.5347520638
 H         -1.0650763240       -3.9837232889       -1.4492409817
 C         -2.3450960497       -2.1081113399        0.1342097494
 H         -2.7095821234       -2.4949166684        1.0976612244
 C         -3.1844767761       -2.7054412411       -0.9771527345
 C         -3.7378275947       -4.0921046721       -0.8496159261
 C         -4.6501433750       -2.9082804389       -0.7425144789
 H         -5.3358412043       -2.7075305250       -1.5519794699
 H         -5.0359865924       -2.6425529757        0.2312532871
 H         -3.8015483872       -4.7063093621       -1.7352735941
 H         -3.5130895611       -4.6403970843        0.0528593434
 H         -2.8778234928       -2.3622357575       -1.9586286793
 O         -1.3637035748       -0.2588387039       -1.8351229325
