  62
        -98.94387279
 C          1.8820718423        0.5464256198        0.8261519130
 C          2.2396761261       -0.4991363264       -0.0584897057
 C          3.6793895406       -0.7813369034       -0.1635454725
 C          4.5478381204       -0.0722104668        0.5805606755
 C          6.0404599913       -0.2216129375        0.5335526499
 C          6.6617403525        0.7335433591       -0.4950824020
 C          5.9816179421        0.6936367670       -1.8635078648
 H          4.9621790355        1.0740446508       -1.7667097866
 H          6.5215739582        1.3835601219       -2.5155767691
 C          5.9421698203       -0.6972054224       -2.5119620080
 H          6.6765250957       -1.3488148751       -2.0371045622
 H          6.2245800085       -0.6021267273       -3.5625798082
 C          4.5702509159       -1.3737637439       -2.4799694553
 H          3.8136279086       -0.6888227814       -2.8713785119
 H          4.6020855584       -2.2396358740       -3.1469058203
 C          4.1028399596       -1.8721358347       -1.1064805988
 H          3.2152144942       -2.4928553311       -1.2623606340
 H          4.8805328029       -2.4925283389       -0.6561407858
 H          7.7184393263        0.4831207552       -0.6045045281
 H          6.5917738344        1.7525346383       -0.1077233323
 H          6.4406079413        0.0124674756        1.5214665049
 H          6.2896408428       -1.2515811271        0.2860116929
 O          4.1624906009        0.9068386675        1.4382922989
 C          2.8268203246        1.2474363021        1.5754181179
 O          2.6104623012        2.1687691776        2.3883426057
 H         -2.0181201290        0.0782384038        0.0346625304
 C         -1.6300668193       -0.5427716008        0.8242690153
 C         -0.4020224083       -0.2564650853        1.4007335324
 C          0.0655089498       -1.0822949050        2.4199047819
 C         -0.6626294618       -2.1827542044        2.8267999079
 C         -1.8756467448       -2.4803963378        2.2312979796
 C         -2.3614731779       -1.6528599337        1.2261948850
 N         -3.6135960713       -1.9026289173        0.6536970760
 S         -4.0348327521       -1.4013971474       -0.8797615421
 O         -5.2422812075       -2.1468968089       -1.1700619221
 O         -2.9603346977       -1.5513589646       -1.8319382807
 C         -4.4575880577        0.3186838953       -0.6899763281
 C         -5.0644968497        0.7450892355        0.4747054077
 C         -5.4274156943        2.0774564720        0.5908154090
 C         -5.1892597522        2.9549648098       -0.4558293227
 C         -4.5853639241        2.5101034577       -1.6215446833
 C         -4.2143649408        1.1797357050       -1.7416386628
 H         -3.7297783211        0.7942617582       -2.6249973144
 H         -4.4011320095        3.1930772838       -2.4357820801
 H         -5.4734526783        3.9912148870       -0.3633186726
 H         -5.8957056870        2.4272417874        1.4967018853
 H         -5.2357326772        0.0385253478        1.2693192664
 H         -4.0475288189       -2.7762384828        0.9102788891
 H         -2.4415240530       -3.3455175409        2.5414373344
 H         -0.2812062536       -2.8193701069        3.6110882324
 H          1.0169948495       -0.8542264544        2.8813466854
 C          0.4243829894        0.9368279700        0.9880179793
 H          0.3976714763        1.6693205879        1.8085964842
 C         -0.0764732648        1.6066264430       -0.2752150527
 C         -1.1251616036        2.6741405779       -0.1980491256
 C          0.2910817419        3.0371757035       -0.5264657857
 H          0.5279801028        3.3394147416       -1.5355767192
 H          0.8830620566        3.5337550534        0.2288139074
 H         -1.8646863188        2.7274899049       -0.9825887872
 H         -1.5012270235        2.9348395758        0.7795265932
 H         -0.0894437597        0.9340302061       -1.1263774031
 O          1.4034622386       -1.1647703293       -0.7242056280
