  62
        -98.94075572
 C          2.3137421334        1.0404341529        0.0056023779
 C          2.0846299904       -0.2223736955       -0.5928581242
 C          2.7899687378       -1.3575647687        0.0169978590
 C          3.5480181101       -1.1740816533        1.1120412103
 C          4.2981168581       -2.2398538911        1.8636463290
 C          5.6724307036       -2.5752336806        1.2676815523
 C          5.6398552129       -3.3618638695       -0.0433522834
 H          6.6562212337       -3.7140760808       -0.2301703773
 H          5.0075017629       -4.2418224081        0.0784879820
 C          5.1680746469       -2.5499923737       -1.2577258551
 H          5.2261790534       -1.4837162009       -1.0275138405
 H          5.8383995308       -2.7325697633       -2.1005254776
 C          3.7506492863       -2.8776431987       -1.7271704376
 H          3.7120978227       -3.9085806730       -2.0858605539
 H          3.5060854805       -2.2194035329       -2.5646205404
 C          2.6726527931       -2.6946809371       -0.6508602332
 H          1.6923858212       -2.7412921116       -1.1316178149
 H          2.7359748097       -3.4942252004        0.0869433345
 H          6.2250108968       -1.6443723449        1.1210308992
 H          6.2118216139       -3.1686969175        2.0094440503
 H          4.4451032815       -1.8588817693        2.8766535869
 H          3.6917766824       -3.1445711796        1.9186924081
 O          3.7058741703        0.0463118994        1.6893690372
 C          3.1168130848        1.1728545534        1.1438681613
 O          3.3790944070        2.2286428550        1.7546351631
 H         -0.4215297498        0.7539632665       -1.0666368811
 C         -0.6934528309        1.5607441444       -0.4016506701
 C          0.2764771025        2.4730734427       -0.0114716059
 C         -0.0841742624        3.4903086950        0.8638213934
 C         -1.3826418159        3.5883111901        1.3334033090
 C         -2.3461278409        2.6747751167        0.9440119831
 C         -1.9915347554        1.6493769050        0.0776725486
 N         -2.9621472552        0.6976241767       -0.3218993607
 S         -3.5153487229       -0.3263241773        0.9055498734
 O         -4.0470074460        0.4815227057        1.9731927680
 O         -2.4823842305       -1.2726523676        1.2757976727
 C         -4.8421445240       -1.1640233326        0.0613790105
 C         -6.0374289701       -0.4929001221       -0.1112991381
 C         -7.0665878481       -1.1231384570       -0.7919344463
 C         -6.8839590706       -2.4060985306       -1.2866690139
 C         -5.6784449151       -3.0666114804       -1.1054075686
 C         -4.6442629473       -2.4407830447       -0.4267295143
 H         -3.6922069014       -2.9182228707       -0.2570453031
 H         -5.5390375213       -4.0644932598       -1.4892165420
 H         -7.6867501753       -2.8954173508       -1.8153137182
 H         -8.0058894777       -0.6136700598       -0.9344596684
 H         -6.1360874263        0.4990375847        0.2970056312
 H         -2.5888645583        0.1064994042       -1.0556750219
 H         -3.3538212180        2.7287828002        1.3210654136
 H         -1.6473485347        4.3837584432        2.0136621937
 H          0.6669383347        4.1947153052        1.1914622282
 C          1.6980846667        2.3366211961       -0.5028014747
 H          2.2873178779        3.1427003330       -0.0454465137
 C          1.7748420778        2.4829197275       -2.0102113186
 C          1.6708996831        3.8507630554       -2.6116538186
 C          2.9814374009        3.1237161503       -2.6238893215
 H          3.3497656360        2.7347842806       -3.5612925930
 H          3.7604455137        3.4639756264       -1.9568190730
 H          1.1368628664        3.9641290455       -3.5424215365
 H          1.5615434054        4.6861982647       -1.9367605098
 H          1.3234410825        1.6595342662       -2.5471827032
 O          1.3341741371       -0.4241542668       -1.5859525247
