  62
        -98.94429431
 C         -2.6533004501       -1.0874419599        0.1918461003
 C         -2.7480284102       -0.2848149900       -0.9711246197
 C         -3.5452250305        0.9405922398       -0.8329082698
 C         -4.1401561007        1.2251554597        0.3397704501
 C         -4.9972118710        2.4278025695        0.6289253900
 C         -4.2010347714        3.6831403198        1.0118104900
 C         -3.4449700315        4.3509184399       -0.1376923400
 H         -4.1297770315        4.5256927197       -0.9678954101
 H         -3.1128489018        5.3267780700        0.2221155000
 C         -2.2224066512        3.5652006702       -0.6329294399
 H         -1.3735571114        4.2434509204       -0.7448469998
 H         -1.9397976311        2.8219429003        0.1166214502
 C         -2.4216211309        2.8615896001       -1.9755401198
 H         -2.5727807411        3.6062044600       -2.7600058999
 H         -1.5106511208        2.3041971803       -2.2086579497
 C         -3.5979105307        1.8768396998       -2.0021294699
 H         -4.5434491508        2.4181762895       -2.0164474600
 H         -3.5216492404        1.2764622997       -2.9117468598
 H         -4.9103257816        4.4064222396        1.4206461999
 H         -3.4986438614        3.4221919700        1.8072235400
 H         -5.6280894210        2.6443026793       -0.2334465201
 H         -5.6385753610        2.1575398294        1.4706002899
 O         -4.0368579406        0.4172793798        1.4298865302
 C         -3.2720535103       -0.7384018300        1.3908922503
 O         -3.2203297802       -1.3577415099        2.4744225203
 O         -2.1966875800       -0.5719588799       -2.0641149596
 C         -1.8230452697       -2.3570919297        0.1631099105
 C         -0.3948614398       -2.0378375093       -0.2111886594
 C          0.3473603905       -2.7986480591       -1.1045662193
 C          1.6587145704       -2.4606156688       -1.3924400692
 C          2.2579374101       -1.3653172986       -0.7990342792
 C          1.5303336298       -0.6058941088        0.1081415207
 C          0.2195625799       -0.9505358291        0.3983532006
 H         -0.3449283103       -0.3587075692        1.1100809605
 N          2.1288750895        0.5140600514        0.7137449107
 S          3.6057224295        0.2944617719        1.4853929408
 O          3.7512523498       -1.0587111381        1.9699838709
 O          3.6728122891        1.3444675719        2.4785035708
 C          4.8062890895        0.6221371721        0.2127112609
 C          4.7697196892        1.8527388521       -0.4132319592
 C          5.7003629292        2.1278308223       -1.4022906291
 C          6.6478005595        1.1742902625       -1.7445567590
 C          6.6733012498       -0.0551457474       -1.1041360789
 C          5.7445211698       -0.3371100976       -0.1143023390
 H          5.7226462400       -1.2804386876        0.4077264111
 H          7.4109722100       -0.7945815573       -1.3713660588
 H          7.3708672095        1.3912045327       -2.5148895589
 H          5.6837117590        3.0828636122       -1.9022485492
 H          4.0199175490        2.5663915519       -0.1147073393
 H          1.5002341093        1.0348673813        1.3079105706
 H          3.2757237600       -1.0942919383       -1.0271928892
 H          2.2208591207       -3.0573837387       -2.0943116591
 H         -0.1021890992       -3.6550248393       -1.5794785893
 H         -1.8223832197       -2.7454199196        1.1929342505
 C         -2.4714865494       -3.3831836699       -0.7432133695
 C         -2.3186398590       -4.8468316498       -0.4615630894
 C         -3.6341006892       -4.1707925102       -0.2212237696
 H         -4.4556241491       -4.3831687604       -0.8887039296
 H         -3.9381258093       -3.9859792202        0.7992536004
 H         -2.2404294488       -5.5275805398       -1.2957970994
 H         -1.7324445090       -5.1327451696        0.3988875806
 H         -2.5099271894       -3.0586146499       -1.7765440495
