  62
        -98.94547626
 C         -2.4112320259       -1.0229307004        0.1218552541
 C         -1.9898828927       -0.1119664708       -0.8770974148
 C         -2.6043617550        1.2205927441       -0.8181269932
 C         -3.5185222199        1.4977341142        0.1291864344
 C         -4.2371951559        2.8078142138        0.3080367278
 C         -3.4466007042        3.8454439809        1.1174074685
 C         -2.2478462313        4.4617411424        0.3945505509
 H         -2.5675389892        4.8445138100       -0.5749783980
 H         -1.9197924746        5.3160087083        0.9901703933
 C         -1.0608478403        3.5057895970        0.2069548419
 H         -0.1354543019        4.0164354782        0.4850380414
 H         -1.1712018746        2.6547601256        0.8838351169
 C         -0.8855776639        2.9851493349       -1.2200196078
 H         -0.6380323631        3.8167601720       -1.8831456039
 H         -0.0519858599        2.2788056111       -1.2279617749
 C         -2.1144377703        2.2588390986       -1.7813524596
 H         -1.8191161276        1.7467701194       -2.7000339501
 H         -2.9047949824        2.9717896646       -2.0134774397
 H         -4.1377923998        4.6497756346        1.3794786741
 H         -3.1115009905        3.3809876460        2.0481130602
 H         -4.4932915682        3.2227709849       -0.6670057088
 H         -5.1617981568        2.5854500415        0.8451055422
 O         -3.9140721738        0.5842715913        1.0562974510
 C         -3.3556246255       -0.6848311099        1.0899424128
 O         -3.7747770013       -1.4064276760        2.0186338122
 O         -1.1429934635       -0.3901776651       -1.7639920415
 C         -1.8254521008       -2.4209877694        0.1592358245
 C         -0.3167067520       -2.3817532779        0.2249388209
 C          0.4825858984       -3.3154890645       -0.4235509625
 C          1.8602521104       -3.2653318688       -0.3030482303
 C          2.4722219192       -2.2859895254        0.4568865226
 C          1.6845901356       -1.3391654477        1.0992258462
 C          0.3027332464       -1.4003030461        0.9876056302
 H         -0.3071583216       -0.6667909796        1.5010517284
 N          2.2824327747       -0.3387141515        1.8793217904
 S          3.7416904492        0.3494383324        1.4497249128
 O          4.8061782929       -0.5917756078        1.6954281104
 O          3.7963444012        1.5815867001        2.2036367613
 C          3.6450382941        0.7074215898       -0.2940531392
 C          2.8393878478        1.7533155003       -0.6980255944
 C          2.7485548937        2.0471999657       -2.0485910833
 C          3.4524583582        1.2859347771       -2.9689429438
 C          4.2596060495        0.2411619904       -2.5476339037
 C          4.3619154172       -0.0509481810       -1.1970467733
 H          4.9930079705       -0.8430259803       -0.8290653492
 H          4.8100498100       -0.3453992870       -3.2653810140
 H          3.3732977100        1.5133184840       -4.0202402315
 H          2.1286073041        2.8650721247       -2.3790826666
 H          2.3114673822        2.3277384668        0.0468596457
 H          1.6403031538        0.3495128861        2.2404052622
 H          3.5419848088       -2.2499638583        0.5772753419
 H          2.4674701093       -4.0015796920       -0.8069976288
 H          0.0252778772       -4.0860218509       -1.0219733376
 H         -2.1922243221       -2.8819811101        1.0889023686
 C         -2.3470447531       -3.2231013577       -1.0173438419
 C         -2.5978470907       -4.6945287022       -0.8860699296
 C         -3.7516381202       -3.7421216534       -0.9676246625
 H         -4.3433752908       -3.7199681560       -1.8704254333
 H         -4.3192872938       -3.5444759539       -0.0695448924
 H         -2.4002803815       -5.3296866038       -1.7365247189
 H         -2.3912047761       -5.1556503905        0.0680411878
 H         -1.9862932999       -2.8458402738       -1.9674168276
