  62
        -98.93914386
 C         -0.9620186176       -1.2118466478        0.5069852446
 C         -1.4506534829       -0.0317183653        1.1175781749
 C         -2.2469560240        0.8719322648        0.2707533670
 C         -2.4196573647        0.5647484898       -1.0260101065
 C         -3.2359089710        1.3223890641       -2.0361233929
 C         -4.6577519661        0.7424394808       -2.1255458848
 C         -5.6525211847        1.3184161311       -1.1178747462
 H         -5.8966309460        2.3438060610       -1.4033187427
 H         -6.5694211752        0.7297198285       -1.1959320588
 C         -5.1889295766        1.3148056776        0.3416091259
 H         -4.6994494735        0.3664327200        0.5702900476
 H         -6.0771207522        1.3803008860        0.9729773436
 C         -4.2533561181        2.4842278050        0.6824152305
 H         -4.6150671514        2.9820691716        1.5842374074
 H         -4.3038962528        3.2209342719       -0.1195165111
 C         -2.7845661315        2.1074533952        0.9406582902
 H         -2.1496233510        2.9578847909        0.6696777206
 H         -2.6364862947        1.9269937190        2.0099696587
 H         -5.0480301050        0.9246790007       -3.1289317187
 H         -4.5850086676       -0.3406499539       -1.9960339848
 H         -3.2573614995        2.3819649849       -1.7971798485
 H         -2.7390409888        1.1898904328       -2.9998941595
 O         -1.8947859428       -0.5552322513       -1.5887828054
 C         -1.1350363211       -1.4546234251       -0.8575709242
 O         -0.7003774656       -2.4084953048       -1.5293556909
 O         -1.2288877287        0.2598335967        2.3239240529
 C         -0.0852587869       -2.1267553945        1.3467789267
 C          1.2156227716       -2.3409043144        0.6152261688
 C          1.7421222767       -3.5804959365        0.2822156641
 C          2.9147080993       -3.6625380684       -0.4501618750
 C          3.5679315025       -2.5225971589       -0.8808920070
 C          3.0504783904       -1.2760150479       -0.5452309606
 C          1.9054173274       -1.1991363549        0.2261746682
 H          1.5048404028       -0.2313509436        0.4885855441
 N          3.6721815971       -0.0874624485       -0.9577341241
 S          2.7303776290        1.2428363858       -1.3466464925
 O          1.4615388524        0.8699672789       -1.9277196539
 O          3.5950383158        2.0551291137       -2.1785626600
 C          2.4900522953        2.0741250146        0.2089372689
 C          1.2123758772        2.3924253315        0.6234128447
 C          1.0409959432        3.0358118956        1.8385702328
 C          2.1476605035        3.3545401699        2.6101833387
 C          3.4259390402        3.0371663849        2.1755393302
 C          3.6027367623        2.3897406670        0.9634886822
 H          4.5777596225        2.1245657094        0.5905011170
 H          4.2827957935        3.2880460738        2.7797543847
 H          2.0092158391        3.8513250112        3.5574134735
 H          0.0450294455        3.2665722072        2.1809827303
 H          0.3758552902        2.1124797164       -0.0001187039
 H          4.4403894706       -0.2080432047       -1.6016801438
 H          4.4625726502       -2.5921038806       -1.4809153996
 H          3.3130315630       -4.6314925803       -0.7110147468
 H          1.2222236311       -4.4804447585        0.5669321564
 H          0.1302395550       -1.5328769103        2.2514302510
 C         -0.7480481843       -3.4089193647        1.8229201593
 C         -2.2371317223       -3.4978250663        1.9687549153
 C         -1.5386189212       -4.2996640606        0.9138941019
 H         -1.4615864745       -5.3683007256        1.0532301097
 H         -1.6387339575       -3.9992278653       -0.1168145003
 H         -2.6411877789       -4.0123645010        2.8276326212
 H         -2.8198942829       -2.6434472401        1.6556604997
 H         -0.1625851065       -3.9020343768        2.5930232932
