  62
        -98.93881577
 C          1.7772609009        1.5121405391        0.2059457304
 C          1.5797185707        0.1739921292       -0.2097105498
 C          2.6069732803       -0.7947010312        0.2140605004
 C          3.6491768902       -0.3755972215        0.9514830207
 C          4.7891564598       -1.1876222119        1.5140446709
 C          5.4125134898       -2.2574494820        0.6072421210
 C          5.4264990603       -1.9125356018       -0.8891937690
 H          5.1621475306       -0.8636617417       -1.0343779989
 H          6.4383742303       -2.0489775621       -1.2754933787
 C          4.4856784803       -2.7948658415       -1.7131735193
 H          4.8027486505       -2.7655705215       -2.7585156992
 H          4.5858875299       -3.8272726415       -1.3711855594
 C          3.0111062904       -2.3949467611       -1.6748101396
 H          2.8663497307       -1.4627755810       -2.2271800096
 H          2.4412423603       -3.1678149809       -2.1960027499
 C          2.4123905900       -2.2018989111       -0.2722272198
 H          1.3308334700       -2.3394797108       -0.3474669801
 H          2.8119633797       -2.9291081712        0.4301069703
 H          4.8920513195       -3.2035472118        0.7483868108
 H          6.4358063397       -2.4078960023        0.9555530013
 H          5.5502971400       -0.4538915921        1.7905042612
 H          4.4469401995       -1.6587744319        2.4400301408
 O          3.7941809005        0.9256356384        1.3342700609
 C          2.8704482208        1.8929953587        0.9827312508
 O          3.1287632810        3.0348340486        1.4148206409
 H         -1.5237607186        1.7787247701       -1.4765189704
 C         -1.6277408788        1.7795697800       -0.4034072604
 C         -0.5727011589        2.1877188297        0.3950574599
 C         -0.7348398893        2.1631451796        1.7779101898
 C         -1.9237042396        1.7437570698        2.3431675595
 C         -2.9725833695        1.3254184402        1.5421138992
 C         -2.8160156991        1.3359953803        0.1632826392
 N         -3.8673095590        0.8948110707       -0.6619252711
 S         -4.5715433795       -0.5844712792       -0.3176220014
 O         -5.2435956193       -0.9707097189       -1.5381688516
 O         -5.4089048598       -0.4509216091        0.8487605784
 C         -3.2258151499       -1.7025790396        0.0248901788
 C         -2.5112303798       -2.2111551397       -1.0408374011
 C         -1.4528051101       -3.0677304900       -0.7909266209
 C         -1.1224552505       -3.3918496602        0.5157356092
 C         -1.8446064506       -2.8663851201        1.5754471190
 C         -2.9085612303       -2.0135008698        1.3311494689
 H         -3.5015446104       -1.5950082397        2.1276008587
 H         -1.5814877810       -3.1177656303        2.5905227891
 H         -0.2975767807       -4.0597465204        0.7099779993
 H         -0.8864579900       -3.4733316500       -1.6139901708
 H         -2.8008215194       -1.9434360795       -2.0441976611
 H         -3.6488001087        0.9499893707       -1.6465247910
 H         -3.9054089097        0.9886024004        1.9642224989
 H         -2.0357948599        1.7367676098        3.4168845095
 H          0.0923793206        2.4713781993        2.4032737701
 C          0.7692118513        2.5864648794       -0.1666213497
 H          1.0984160514        3.5034082792        0.3409108905
 C          0.7718891518        2.8281952895       -1.6612289397
 C          0.2098295823        4.1041901597       -2.2101481297
 C          1.6895483422        3.8671988793       -2.2285632194
 H          2.1692424824        3.6698447393       -3.1756607493
 H          2.3073415222        4.4182685591       -1.5344847891
 H         -0.3254767175        4.0739600300       -3.1471604299
 H         -0.1802689977        4.8213084998       -1.5038390597
 H          0.6373781317        1.9204232596       -2.2377193998
 O          0.5968930307       -0.2037642905       -0.8976120800
