  62
        -98.94319035
 C         -1.8205618738       -0.0903005841        0.3054654410
 C         -2.7436021796       -0.6566574774       -0.6080091295
 C         -4.0124607313        0.0685397971       -0.7640712248
 C         -4.2226938324        1.2151086426       -0.0944037649
 C         -5.4522048764        2.0786038786       -0.1749718455
 C         -6.5954257120        1.6230879501        0.7423862669
 C         -7.3192148893        0.3514714829        0.2976233472
 H         -8.2249198835        0.2710743207        0.9020985587
 H         -7.6303426201        0.4572470581       -0.7421180750
 C         -6.4988905008       -0.9353683450        0.4637473785
 H         -5.6645200660       -0.7498648477        1.1441032775
 H         -7.1209137299       -1.7065278814        0.9237730648
 C         -5.9533554439       -1.5123129522       -0.8425451615
 H         -6.7835830780       -1.8249831903       -1.4796393990
 H         -5.3592363983       -2.3978472213       -0.6036907965
 C         -5.0649797635       -0.5461184974       -1.6370371422
 H         -4.5571886390       -1.1126055783       -2.4211812125
 H         -5.6734967662        0.2285379218       -2.1028038443
 H         -6.1988915204        1.4835090278        1.7508251797
 H         -7.3244225427        2.4358454011        0.7821798669
 H         -5.1465947212        3.0825467233        0.1278711505
 H         -5.8051083760        2.1193426553       -1.2058751124
 O         -3.2975733735        1.7456963851        0.7496441528
 C         -2.0961206171        1.0998656770        0.9854656611
 O         -1.3644159074        1.6771213951        1.8161773632
 H          1.5081049264        1.1079810432        0.6234405662
 C          1.4647297396        0.5705760095       -0.3125423513
 C          0.5039910543       -0.4130127649       -0.5051538237
 C          0.4507290210       -1.0641227770       -1.7336537519
 C          1.3378699149       -0.7313699351       -2.7404506758
 C          2.3043140010        0.2385770612       -2.5396671651
 C          2.3641614334        0.8976188953       -1.3180841309
 N          3.3336752830        1.8905030420       -1.0836400993
 S          4.2713616651        1.7751148141        0.2983023127
 O          3.4935860832        2.1077830615        1.4636117157
 O          5.4184653179        2.6153444887        0.0326066547
 C          4.7642105754        0.0618756653        0.3428535870
 C          4.0615087045       -0.8321959632        1.1244267365
 C          4.4068992233       -2.1738261645        1.0815729901
 C          5.4418920732       -2.5950779701        0.2614186328
 C          6.1427391131       -1.6834688693       -0.5136043783
 C          5.7989919490       -0.3421179250       -0.4783262983
 H          6.3233599853        0.4006215504       -1.0575270195
 H          6.9508758859       -2.0141137277       -1.1458634949
 H          5.7045071018       -3.6405892379        0.2294205428
 H          3.8642418361       -2.8842487384        1.6846490751
 H          3.2667103934       -0.4620180485        1.7518610571
 H          3.9177327493        2.0878123653       -1.8840600007
 H          2.9993594000        0.4942334601       -3.3251561657
 H          1.2807326918       -1.2381832304       -3.6917069459
 H         -0.3125354260       -1.8064246884       -1.9034945350
 C         -0.4690360394       -0.7218105655        0.6078405945
 H         -0.1066244773       -0.2159311802        1.5133185138
 C         -0.5659901175       -2.2066515924        0.8952812456
 C          0.5201259243       -2.8640378161        1.6895300742
 C         -0.8343105223       -2.6593917602        2.2976314730
 H         -1.4708289726       -3.5182867705        2.4488968677
 H         -0.9437051665       -1.8976937672        3.0567543995
 H          1.3265897695       -2.2378779696        2.0399230381
 H          0.8182611293       -3.8662943638        1.4237727191
 H         -1.0262830493       -2.7747352436        0.0986546719
 O         -2.5451724446       -1.7100006956       -1.2665113570
