  62
        -98.93505562
 C         -2.2898789793       -0.7140274498       -0.0597609407
 C         -3.5404006092       -1.1042418304        0.4706416989
 C         -4.7322914193       -0.4483802198       -0.0947691403
 C         -4.5792815994        0.4721071213       -1.0653495092
 C         -5.5993271394        1.2643152022       -1.8569966082
 C         -7.0581544194        1.3264891516       -1.4117355881
 C         -7.2971519494        2.0895242701       -0.1090807372
 H         -7.1141090594        3.1514678103       -0.2910631260
 H         -8.3477210594        1.9754278697        0.1664332527
 C         -6.4250945993        1.6687786488        1.0710757923
 H         -6.6874431593        2.3017709978        1.9231694130
 H         -5.3758248093        1.8619894291        0.8383899324
 C         -6.5770325392        0.2138124382        1.5098183006
 H         -7.6274589592       -0.0005924220        1.7155453404
 H         -6.0216785692        0.0914345972        2.4436837904
 C         -6.0482412192       -0.8354526006        0.5169748693
 H         -5.8666922092       -1.7616038612        1.0700803283
 H         -6.7817930793       -1.0550157697       -0.2548190709
 H         -7.6022808595        1.8483862625       -2.2036075975
 H         -7.4755837894        0.3258343615       -1.3509564692
 H         -5.2004365095        2.2816058123       -1.9220811371
 H         -5.5647302695        0.8559767634       -2.8731200587
 O         -3.3470389394        0.8140545919       -1.5478800989
 C         -2.1805887694        0.2454438014       -1.0635399996
 O         -1.1396044594        0.6736947221       -1.5984778891
 O         -3.6598064191       -1.9692871415        1.3799115779
 C         -1.0283659092       -1.3652836603        0.4729865985
 C         -0.0733370292       -0.3281648609        1.0099885796
 C         -0.5599878692        0.6790499881        1.8395999708
 C          0.2859205508        1.6455820775        2.3467459219
 C          1.6355727107        1.6271625879        2.0419171218
 C          2.1368210307        0.6140349789        1.2335577506
 C          1.2834435108       -0.3573323505        0.7277661595
 H          1.6952778408       -1.1269319398        0.0979753886
 N          3.5157249307        0.5422466893        0.9667801705
 S          4.0791581007       -0.0332861690       -0.5155513802
 O          3.5261643006        0.7388301622       -1.6061329193
 O          3.8833068507       -1.4594859589       -0.5731201819
 C          5.8177371307        0.3192984909       -0.3273477299
 C          6.5797238207       -0.5312815500        0.4514185891
 C          7.9259524307       -0.2539460102        0.6263811893
 C          8.4854246907        0.8628388606        0.0231138106
 C          7.7089537606        1.7058984014       -0.7573140484
 C          6.3610551006        1.4350317816       -0.9350019986
 H          5.7204380506        2.0574516123       -1.5391760979
 H          8.1471906705        2.5712453120       -1.2279154274
 H          9.5338854107        1.0758916804        0.1596111608
 H          8.5334207308       -0.9085295308        1.2302511485
 H          6.1033425008       -1.3912961205        0.8920988081
 H          3.9987978107        1.3948668790        1.2170279214
 H          2.2949917807        2.3881610275        2.4309654527
 H         -0.1087780392        2.4258858768        2.9802441228
 H         -1.6161311692        0.6984705778        2.0728938009
 H         -1.3568237192       -1.9964168813        1.3131460978
 C         -0.4131763692       -2.2537985891       -0.5880660726
 C          0.3581102508       -3.4779288195       -0.1982119940
 C         -0.9942968592       -3.6136689288       -0.8287987441
 H         -1.0594108192       -3.9739988077       -1.8444939745
 H         -1.8221051192       -3.9142428296       -0.2031634844
 H          1.2315200808       -3.7392708688       -0.7771143244
 H          0.4491801209       -3.6943154107        0.8555457357
 H         -0.0754643893       -1.6934798781       -1.4543885619
