  62
        -98.94104914
 C          1.5519100321        1.6701832334        0.4092914359
 C          2.0608357810        1.1304928339       -0.7975948273
 C          3.0694491535        0.0695719164       -0.6480970717
 C          3.4188394686       -0.3655624808        0.5751601874
 C          4.4526087168       -1.4146033527        0.8861408181
 C          3.9516753852       -2.8618283379        0.7808861107
 C          3.7078981617       -3.3666172608       -0.6418088392
 H          4.5955679137       -3.1856842821       -1.2487497961
 H          3.5703585203       -4.4478554165       -0.5804522687
 C          2.4788587234       -2.7512630461       -1.3248389005
 H          1.8414745362       -2.2888866059       -0.5687874585
 H          1.8886586525       -3.5386372525       -1.7999474321
 C          2.8042447034       -1.7134906741       -2.3985788200
 H          1.8637712039       -1.3212807427       -2.7953391368
 H          3.3375928855       -2.1929544124       -3.2225054276
 C          3.6421531160       -0.5297590364       -1.8977549806
 H          4.6713738467       -0.8459640986       -1.7284352171
 H          3.6362338188        0.2434021396       -2.6702378034
 H          4.7077397584       -3.4999325348        1.2439207620
 H          3.0331741016       -2.9628326688        1.3634009754
 H          5.3131172006       -1.2811523189        0.2294220326
 H          4.7718214822       -1.2364943441        1.9153720504
 O          2.8690486058        0.1427795914        1.7098761839
 C          1.9389293123        1.1686680956        1.6563536472
 O          1.5372482758        1.5492918881        2.7721406285
 O          1.7134042614        1.4983977449       -1.9500000713
 C          0.5408882760        2.8069922805        0.4582796592
 C         -0.8586940578        2.2562904772        0.3720004283
 C         -1.8153486949        2.5494276578        1.3356277371
 C         -3.0788109558        1.9861992896        1.2691807783
 C         -3.4070086204        1.1097974767        0.2506116224
 C         -2.4546551301        0.8096405811       -0.7149751576
 C         -1.1967462190        1.3881554737       -0.6574283576
 H         -0.4616655031        1.1559705482       -1.4143478772
 N         -2.7598538738       -0.1375175925       -1.7148322496
 S         -3.2228923560       -1.6366088567       -1.1182416118
 O         -2.7455604139       -2.6077542267       -2.0769558924
 O         -4.6453036676       -1.6342397768       -0.8846103696
 C         -2.3644562599       -1.7953077933        0.4405428856
 C         -0.9860459461       -1.7084449445        0.4407341714
 C         -0.3121598011       -1.7578439857        1.6492928962
 C         -1.0220073446       -1.8962860517        2.8318877390
 C         -2.4044125926       -1.9920223688        2.8142740636
 C         -3.0851113702       -1.9353318566        1.6084999589
 H         -4.1598792270       -1.9907078444        1.5499749598
 H         -2.9522915949       -2.1002416356        3.7363269070
 H         -0.4887321931       -1.9207685512        3.7690443483
 H          0.7630408014       -1.6676129769        1.6709506257
 H         -0.4572542550       -1.6000855092       -0.4938625181
 H         -2.0167307474       -0.2462245343       -2.3910297222
 H         -4.3764933598        0.6415644474        0.1928390173
 H         -3.8117290593        2.2224891297        2.0249882939
 H         -1.5570890353        3.2075432871        2.1519344622
 H          0.6593700113        3.2529941580        1.4578749041
 C          0.8259066013        3.9002822414       -0.5628636948
 C         -0.0658355784        4.2063512074       -1.7251943193
 C         -0.0048601266        5.1495269423       -0.5639303884
 H          0.4886969075        6.1010944770       -0.6904589966
 H         -0.8568824224        5.1773626843        0.0987360924
 H          0.4055606645        4.4902691398       -2.6539009774
 H         -0.9608463854        3.6188693142       -1.8569984760
 H          1.8902825837        4.0267947479       -0.7327192502
