  62
        -98.94078643
 C         -2.3907353493       -1.2532487798        0.1448905399
 C         -2.2722223592        0.1546814902        0.0247953004
 C         -3.3845798391        0.9415251000        0.5854100808
 C         -4.4081386191        0.3137161899        1.1899487207
 C         -5.6269600991        0.9896894697        1.7462035010
 C         -6.7411972991        1.0815857601        0.6941802511
 C         -6.2759780992        1.6348139506       -0.6528270487
 H         -5.5775889393        0.9282716108       -1.1071026490
 H         -7.1513534893        1.6842348709       -1.3039346386
 C         -5.6165325092        3.0190056906       -0.5777452182
 H         -5.8770308191        3.5036274402        0.3638542920
 H         -6.0137448892        3.6404910209       -1.3830592280
 C         -4.0947491892        3.0064824906       -0.7356538884
 H         -3.8239760793        2.4427783509       -1.6322953886
 H         -3.7591058091        4.0362742606       -0.8851841380
 C         -3.3051127491        2.4362723401        0.4496518714
 H         -2.2475349191        2.6674134201        0.2884209014
 H         -3.6239311890        2.9245447298        1.3729164716
 H         -7.5393843991        1.7110328500        1.0916068214
 H         -7.1468927392        0.0804472002        0.5311038808
 H         -5.9871473490        0.4044776994        2.5939911508
 H         -5.3569307390        1.9852249596        2.0931432114
 O         -4.4671280792       -1.0353559802        1.3238214302
 C         -3.4683968792       -1.8455454400        0.8119453198
 O         -3.6485004793       -3.0625298601        1.0153987893
 H          0.5946503606       -0.8353429892       -1.7536116001
 C          0.8960294107       -1.0674092796       -0.7440581303
 C          0.0336135607       -1.7657206799        0.0845784695
 C          0.4251762808       -2.0187828004        1.3956160894
 C          1.6538797409       -1.5880623706        1.8594451895
 C          2.5124375908       -0.8879733503        1.0296295897
 C          2.1207494007       -0.6114846898       -0.2729668902
 N          2.9769676907        0.1033732205       -1.1250250400
 S          3.8446127108        1.4076789002       -0.5294823195
 O          3.1632051609        2.0770563898        0.5537547108
 O          4.1500541707        2.2131233306       -1.6923283193
 C          5.3525713608        0.6648189999        0.0630929301
 C          6.0390011107       -0.1830285798       -0.7841143903
 C          7.2199143807       -0.7584335300       -0.3434844706
 C          7.6951516308       -0.4751375005        0.9283272595
 C          6.9972404009        0.3813712292        1.7655199198
 C          5.8142882009        0.9591006494        1.3308876201
 H          5.2357910910        1.6267914292        1.9497558904
 H          7.3681433710        0.6015917488        2.7536995999
 H          8.6146161908       -0.9244229307        1.2690332192
 H          7.7651625207       -1.4253715998       -0.9917215609
 H          5.6382848806       -0.3751962194       -1.7652218404
 H          2.5628924606        0.3251242708       -2.0189125799
 H          3.4648806709       -0.5353073805        1.3900414098
 H          1.9464294509       -1.7946765710        2.8778210894
 H         -0.2528068092       -2.5497793306        2.0500688993
 C         -1.3309520993       -2.2115536897       -0.3763994105
 H         -1.5555352993       -3.1717417998        0.1145342291
 C         -1.3949186895       -2.4681463491       -1.8752385006
 C         -2.7192473695       -2.6355797788       -2.5571484306
 C         -1.8626006095       -1.4461758087       -2.8652966602
 H         -1.3709563396       -1.4057665584       -3.8267681302
 H         -2.1652788494       -0.4803898888       -2.4927466198
 H         -3.6064058195       -2.4865573890       -1.9585381605
 H         -2.8214386696       -3.4067378885       -3.3055779009
 H         -0.5974986895       -3.1291058090       -2.2014233709
 O         -1.3059889392        0.7447933004       -0.5250017794
