  62
        -98.94472356
 C         -2.0165977121       -1.3699643812        0.3081033921
 C         -2.6568106273       -0.7640025823       -0.8000352587
 C         -3.8043303453        0.0984847324       -0.4812290501
 C         -4.1754160074        0.2576405919        0.8022514495
 C         -5.2852153587        1.1532012123        1.2698751406
 C         -4.7622209933        2.5591671494        1.5967377006
 C         -3.8829428813        3.1621890442        0.5008497460
 H         -3.5954341689        4.1639288504        0.8280755001
 H         -2.9636626186        2.5774310771        0.4162071587
 C         -4.5546300264        3.2473410419       -0.8768900583
 H         -5.6362556577        3.1604896099       -0.7673357483
 H         -4.3498964111        4.2307319498       -1.3053759045
 C         -4.0626349412        2.2099148774       -1.8880573942
 H         -2.9703986497        2.2309418664       -1.9338203423
 H         -4.4356897591        2.4949397631       -2.8753722456
 C         -4.5067651496        0.7643581694       -1.6305964118
 H         -5.5895606851        0.7305140327       -1.4944813274
 H         -4.2518583036        0.1771492757       -2.5176412530
 H         -5.6174067770        3.2123936011        1.7787837756
 H         -4.1744150392        2.5055484638        2.5161937127
 H         -6.0502192810        1.2089153796        0.4980740876
 H         -5.7214747640        0.7193249709        2.1711833029
 O         -3.5376369140       -0.3447834076        1.8386983316
 C         -2.4357922155       -1.1566262921        1.6204323465
 O         -1.9203675507       -1.6165726909        2.6603234537
 O         -2.2899530114       -0.9300842378       -1.9917861554
 C         -0.8074788410       -2.2610631148        0.0871872562
 C          0.2893703244       -1.4786712983       -0.5947883903
 C          1.0174115487       -1.9598533886       -1.6744339128
 C          2.0068838849       -1.1839942293       -2.2549084894
 C          2.2987430895        0.0766691407       -1.7692610844
 C          1.5918638558        0.5582405743       -0.6738466988
 C          0.6043809546       -0.2214520668       -0.0926010083
 H          0.0533840594        0.1569660499        0.7602813821
 N          1.8932486322        1.8294064264       -0.1574451766
 S          3.5043265976        2.2485087740        0.0114599450
 O          3.5353076148        3.1974453426        1.1024944913
 O          4.0164016934        2.7250833842       -1.2491977502
 C          4.3418333135        0.7406164110        0.4687299254
 C          3.9291585632        0.0863791843        1.6126543656
 C          4.5505690352       -1.0997262390        1.9674762987
 C          5.5703507413       -1.6081205845        1.1772645511
 C          5.9775162142       -0.9362226606        0.0354204952
 C          5.3571418876        0.2490161277       -0.3260533617
 H          5.6387702499        0.8018463125       -1.2074085679
 H          6.7719006789       -1.3328941406       -0.5758503821
 H          6.0493973628       -2.5335076510        1.4553578681
 H          4.2339028186       -1.6231082897        2.8554762963
 H          3.1361275895        0.5082486292        2.2096647245
 H          1.3586735768        2.0808822868        0.6604469831
 H          3.0510606023        0.7003122915       -2.2242024418
 H          2.5555009504       -1.5654029548       -3.1022912386
 H          0.8031682353       -2.9385225272       -2.0704281033
 H         -0.4509442482       -2.5423259041        1.0890379514
 C         -1.2100436463       -3.5176361900       -0.6558518225
 C         -0.4579256324       -4.7956085447       -0.4408275175
 C         -1.8411076499       -4.6378310728        0.1133239488
 H         -2.6494013371       -5.1874924282       -0.3451474185
 H         -1.9560355550       -4.5033084884        1.1793643714
 H         -0.3179803888       -5.4593185153       -1.2806412076
 H          0.3690762285       -4.7790667049        0.2526140296
 H         -1.5992764619       -3.3090984274       -1.6455781143
