  62
        -98.94059151
 C          2.2829911000        1.0348967297       -0.0234196044
 C          2.0179462519       -0.2171307921       -0.6294235666
 C          2.6519388823       -1.3852093180        0.0010329778
 C          3.3817907853       -1.2247959473        1.1188192756
 C          4.1074986361       -2.3226951418        1.8396487948
 C          5.5461474519       -2.4719424089        1.3248300126
 C          5.6530765103       -2.5411148820       -0.1985019099
 H          5.3441652203       -1.5822082956       -0.6207652959
 H          6.7085520143       -2.6758081304       -0.4442743073
 C          4.8304202407       -3.6660207695       -0.8419335130
 H          5.4472670950       -4.1662014941       -1.5914319071
 H          4.5678982762       -4.4101271813       -0.0891111687
 C          3.5601554263       -3.1956024944       -1.5527069583
 H          3.1768510301       -4.0274649432       -2.1495391462
 H          3.8054399932       -2.3835535962       -2.2416894386
 C          2.4204521446       -2.7250501409       -0.6400299692
 H          1.5239998733       -2.6109166301       -1.2565078560
 H          2.2167870820       -3.4833514848        0.1189118477
 H          6.1273891963       -1.6140893709        1.6706103977
 H          5.9770583327       -3.3736295872        1.7636625839
 H          4.1338593293       -2.0749540013        2.9022446896
 H          3.5635859176       -3.2563618012        1.7092957675
 O          3.5791314587       -0.0146755820        1.7003319587
 C          3.0486098758        1.1345011395        1.1435395033
 O          3.3265365430        2.1776842868        1.7685546505
 H         -0.4358219141        0.8469894680       -1.1407052059
 C         -0.6871732161        1.6526540996       -0.4663887986
 C          0.3054945163        2.5348656717       -0.0639984997
 C         -0.0306148582        3.5508880554        0.8224370684
 C         -1.3259660255        3.6747943961        1.2948453506
 C         -2.3099614453        2.7858051061        0.8999535747
 C         -1.9803911122        1.7642850619        0.0196477321
 N         -2.9718890949        0.8275517622       -0.3700591322
 S         -3.4337932938       -0.2206660931        0.8771571219
 O         -3.9942166103        0.5644108452        1.9469877395
 O         -2.3322840647       -1.0908882922        1.2354209449
 C         -4.7195746928       -1.1552854427        0.0718179467
 C         -5.9984858191       -0.6338716720        0.0394018083
 C         -6.9939528585       -1.3426013864       -0.6139078296
 C         -6.6948757540       -2.5525003444       -1.2225111206
 C         -5.4061012445       -3.0626843434       -1.1819038524
 C         -4.4057219171       -2.3582864584       -0.5304284705
 H         -3.3921412018       -2.7216525706       -0.4660880609
 H         -5.1760094812       -4.0043574081       -1.6539840770
 H         -7.4710517642       -3.1032109932       -1.7300132910
 H         -7.9976159240       -0.9504625645       -0.6463595941
 H         -6.1845192390        0.3053263853        0.5330961235
 H         -2.6243947875        0.2502722059       -1.1274620150
 H         -3.3148329492        2.8539905550        1.2825219853
 H         -1.5705322028        4.4682251555        1.9849172434
 H          0.7378601367        4.2317234915        1.1593799629
 C          1.7271481381        2.3550063210       -0.5408558274
 H          2.3376540714        3.1374449951       -0.0705622589
 C          1.8335699560        2.5047981605       -2.0456014045
 C          1.7997918980        3.8789589454       -2.6408183281
 C          3.0772244980        3.0952397890       -2.6356404766
 H          3.4440099353        2.6953744168       -3.5690096996
 H          3.8588684420        3.3976450579       -1.9536297482
 H          1.2869800974        4.0201266479       -3.5796681873
 H          1.7161425907        4.7152187792       -1.9632949638
 H          1.3560641246        1.7045941798       -2.5947587158
 O          1.2920286371       -0.3820616857       -1.6476496808
