  62
        -98.94417027
 C          2.2479264569        0.8618558445        0.4105783787
 C          2.4545955883        0.0150699000       -0.7056161657
 C          3.3039682371       -1.1582561936       -0.4629348715
 C          3.7886627138       -1.3916474299        0.7701866118
 C          4.6485876643       -2.5572011353        1.1781048151
 C          6.1438843981       -2.3591156740        0.8937677099
 C          6.5417535156       -2.4372066374       -0.5807291829
 H          7.6311564868       -2.5007004504       -0.6149623836
 H          6.1484850181       -3.3576161715       -1.0133877279
 C          6.0907758207       -1.2358060320       -1.4232659146
 H          5.8300630581       -0.4053375308       -0.7631059915
 H          6.9200013039       -0.8984197806       -2.0490992598
 C          4.9093725141       -1.5197270507       -2.3510015838
 H          4.6510861037       -0.5933967035       -2.8701506806
 H          5.2021487489       -2.2565516967       -3.1021593184
 C          3.6512061299       -2.0268619265       -1.6340775869
 H          3.7900683757       -3.0597515716       -1.3154997879
 H          2.8149120884       -1.9847530534       -2.3361527827
 H          6.4525050285       -1.3948840781        1.3042762273
 H          6.6839401201       -3.1388346455        1.4358484814
 H          4.5163386406       -2.6791653887        2.2554511847
 H          4.2992593367       -3.4625295732        0.6807575615
 O          3.5234540227       -0.5783941561        1.8286407011
 C          2.7650217051        0.5713109266        1.6719033726
 O          2.6132355549        1.2338519731        2.7199565210
 O          1.9561756278        0.2229904629       -1.8411886731
 C          1.4117635579        2.1187607311        0.2584518079
 C          0.0112241584        1.7698744937       -0.1865395174
 C         -0.6773204565        2.4817589590       -1.1598258976
 C         -1.9683162655        2.1237435016       -1.5085530287
 C         -2.5998998994        1.0563045670       -0.8981456578
 C         -1.9263033952        0.3459268769        0.0871290944
 C         -0.6359679697        0.7107038292        0.4381869338
 H         -0.1141638077        0.1578527466        1.2110355109
 N         -2.5578459493       -0.7465669313        0.7097937699
 S         -4.0743118776       -0.4907989299        1.3871339221
 O         -4.2342772817        0.8778063973        1.8218179689
 O         -4.2103330917       -1.5090132724        2.4060214322
 C         -5.2033317040       -0.8465337472        0.0574531244
 C         -6.1311645802        0.0997297260       -0.3314441277
 C         -7.0049902673       -0.2042590327       -1.3638991490
 C         -6.9363823786       -1.4422897686       -1.9842744369
 C         -6.0002299259       -2.3825001771       -1.5797271521
 C         -5.1244437277       -2.0854873818       -0.5478165648
 H         -4.3845345845       -2.7877156575       -0.2013775391
 H         -5.9496008355       -3.3440513007       -2.0647275536
 H         -7.6165255192       -1.6764032116       -2.7879386014
 H         -7.7333305142        0.5250967338       -1.6800886344
 H         -6.1430938892        1.0508020378        0.1765841358
 H         -1.9623879566       -1.2376062241        1.3610613617
 H         -3.6015908529        0.7696134422       -1.1733489417
 H         -2.4885197722        2.6823638217       -2.2715021178
 H         -0.2020040681        3.3161198785       -1.6486573584
 H          1.3434646280        2.5629309644        1.2631307335
 C          2.1107734746        3.0987011925       -0.6615177028
 C          1.9373580345        4.5744925970       -0.4699991446
 C          3.2382864191        3.9205884963       -0.1159355353
 H          4.0971146542        4.1014784389       -0.7447319548
 H          3.4820206328        3.7944945244        0.9294149749
 H          1.9063201371        5.2083356327       -1.3433688258
 H          1.3005751641        4.9030767459        0.3376122112
 H          2.2114183471        2.7191088921       -1.6717048442
