  62
        -98.93584843
 C         -2.2926487047       -1.4763887266        0.1572509812
 C         -2.4487741283       -0.3795167803       -0.7203823906
 C         -3.4088309591        0.6665698784       -0.3112633883
 C         -4.0869354007        0.5260601240        0.8411421561
 C         -5.0985740844        1.4514327278        1.4690288522
 C         -6.1452489424        2.0756932107        0.5336575357
 C         -5.9388753327        3.5737353123        0.3025125558
 H         -6.8950067078        4.0186081433        0.0182106439
 H         -5.6339432278        4.0317901860        1.2457090617
 C         -4.9237376029        3.9308089060       -0.7818769746
 H         -5.3442766157        3.6978102139       -1.7625138597
 H         -4.7654511467        5.0111680000       -0.7446234238
 C         -3.5673297224        3.2331579412       -0.6618538278
 H         -3.2448559431        3.1975673173        0.3784951859
 H         -2.8310372898        3.8355258833       -1.1990321042
 C         -3.5474949291        1.8209757196       -1.2663324662
 H         -4.4373648294        1.6660655388       -1.8831412206
 H         -2.6923537578        1.7259552721       -1.9427828550
 H         -7.1247420472        1.9396995556        0.9948202193
 H         -6.1591903452        1.5433401702       -0.4159027941
 H         -4.5596145217        2.2396696809        2.0010990777
 H         -5.5962088110        0.8475407385        2.2313573085
 O         -3.9039549805       -0.5491990470        1.6592256717
 C         -3.0108095672       -1.5555412056        1.3540318897
 O         -2.9510757919       -2.4623104696        2.2077645245
 O         -1.8272472683       -0.2517065140       -1.8105404886
 C         -1.3245963028       -2.6225313910       -0.1030510533
 C          0.0808170586       -2.1692704523        0.2127655704
 C          0.6951392479       -2.5549650408        1.3991961912
 C          1.9604244427       -2.0958683003        1.7194596799
 C          2.6356632202       -1.2386669155        0.8685890101
 C          2.0246412324       -0.8373603081       -0.3116845885
 C          0.7637495883       -1.3135949983       -0.6395789664
 H          0.2860472553       -0.9769260967       -1.5470867232
 N          2.6937970794        0.0526938586       -1.1742233379
 S          3.2195255309        1.5010109081       -0.5016878117
 O          2.4035217589        1.8927963351        0.6252124565
 O          3.2864066121        2.4349981267       -1.6047676943
 C          4.8756904537        1.1337323557        0.0413920692
 C          5.2413711497        1.3756472905        1.3509805250
 C          6.5389430888        1.0912137822        1.7478569808
 C          7.4427643122        0.5736744367        0.8327220456
 C          7.0602055536        0.3386130789       -0.4796954876
 C          5.7652126841        0.6219082710       -0.8831508612
 H          5.4279458894        0.4571170586       -1.8927619966
 H          7.7659753241       -0.0639112514       -1.1883152238
 H          8.4513460276        0.3524504018        1.1443783964
 H          6.8378683670        1.2737637391        2.7675835653
 H          4.5019528172        1.7724695498        2.0284272254
 H          2.1756617867        0.2371728012       -2.0224258394
 H          3.6175554011       -0.8695813363        1.1167291746
 H          2.4246129564       -2.4052733686        2.6435106852
 H          0.1612213830       -3.2028980048        2.0796259666
 H         -1.5943897076       -3.4028698229        0.6206756436
 C         -1.4495554040       -3.2008978431       -1.4981301470
 C         -0.9062317048       -4.5713314585       -1.7644140130
 C         -2.3873184962       -4.3453610835       -1.7316358861
 H         -2.9371331938       -4.3784576181       -2.6602734415
 H         -2.9427723511       -4.7176031996       -0.8829468752
 H         -0.4363291407       -4.7629441522       -2.7167521188
 H         -0.4564544848       -5.0986347431       -0.9367904953
 H         -1.3681969715       -2.4629161953       -2.2847234363
