  62
        -98.93505736
 C         -1.9950075601       -0.3773063785       -0.1451467849
 C         -3.0894457322       -1.1447144823        0.3246196240
 C         -4.3344424708       -0.4237828682        0.6526194423
 C         -4.3515732760        0.9167646446        0.5376123237
 C         -5.4993755528        1.8603275538        0.7808322138
 C         -6.5348752464        1.8410957604       -0.3550946036
 C         -6.9082146313        0.4503088883       -0.8613933032
 H         -7.5603093417        0.5773791748       -1.7295963153
 H         -6.0066686109       -0.0592463076       -1.2063147913
 C         -7.6385292650       -0.4348988996        0.1456991570
 H         -8.5567844630        0.0650023156        0.4620156022
 H         -7.9233086532       -1.3523069690       -0.3758854128
 C         -6.8429763410       -0.8262643333        1.3929337725
 H         -6.8052487736       -0.0084586396        2.1075800247
 H         -7.3855981622       -1.6404135608        1.8822721650
 C         -5.4365787978       -1.3468623622        1.1139594584
 H         -5.4925080188       -2.1492623107        0.3693291731
 H         -5.0555122386       -1.8265410196        2.0236564180
 H         -7.4320464983        2.3594069450       -0.0124391874
 H         -6.1224530328        2.4022893843       -1.1973024564
 H         -5.9676233763        1.6400853659        1.7356687328
 H         -5.0714877369        2.8633931279        0.8444979221
 O         -3.2608934141        1.6207060020        0.1236367158
 C         -2.0649537500        1.0140067712       -0.2264804450
 O         -1.1810804564        1.8161723184       -0.5799339042
 O         -3.0367803174       -2.3962359935        0.4650342678
 C         -0.7158611930       -1.1232331458       -0.4836183586
 C          0.4554305317       -0.4803658087        0.2125054349
 C          0.6117737764       -0.6661370845        1.5830059172
 C          1.6568274979       -0.0704464274        2.2635491222
 C          2.5690631609        0.7233272305        1.5911625297
 C          2.4217147478        0.9144609315        0.2238121087
 C          1.3783680213        0.3043778350       -0.4604713292
 H          1.2621670444        0.4793250120       -1.5185369296
 N          3.3451535568        1.7189836687       -0.4627737773
 S          4.9715316024        1.5039978664       -0.1496460480
 O          5.3319549637        2.1819710048        1.0708115539
 O          5.6520795213        1.9518315146       -1.3445149428
 C          5.1663928325       -0.2578094753        0.0582010132
 C          4.8651138228       -1.0734512989       -1.0147924804
 C          4.9667897604       -2.4463828325       -0.8629746039
 C          5.3642157077       -2.9784449813        0.3543867105
 C          5.6681022799       -2.1464539182        1.4203077049
 C          5.5669653942       -0.7719379385        1.2742053484
 H          5.7921722681       -0.0894792826        2.0773995181
 H          5.9791926647       -2.5628815009        2.3648129032
 H          5.4383917043       -4.0481342091        0.4710405142
 H          4.7331416354       -3.0959789544       -1.6912018099
 H          4.5655928809       -0.6265157579       -1.9491218211
 H          3.1568616642        1.8168217172       -1.4488657467
 H          3.3800956331        1.2116277157        2.1067107822
 H          1.7613739613       -0.2201889552        3.3273991915
 H         -0.1066412752       -1.2776672613        2.1114667402
 H         -0.8651338778       -2.1226571258       -0.0435821214
 C         -0.4820744608       -1.3398612489       -1.9712032161
 C         -1.6344355613       -1.5989852139       -2.8936995423
 C         -0.8481136818       -0.3298178881       -3.0155691952
 H         -0.1926489410       -0.2158829815       -3.8672585838
 H         -1.3014566068        0.5933717189       -2.6905931605
 H         -1.5244411792       -2.3510271300       -3.6603252264
 H         -2.6283966591       -1.5442491569       -2.4741015012
 H          0.4191038218       -1.9180117867       -2.1528223899
