  62
        -98.94078360
 C         -2.5656795443       -1.3461181444        0.2814652223
 C         -2.8012842401       -0.5074774113       -0.8352080335
 C         -3.6058801578        0.6976334668       -0.5755517912
 C         -4.0523065914        0.9464543339        0.6680201213
 C         -4.8262434001        2.1648675648        1.0782750586
 C         -3.8904161189        3.2826561711        1.5590002838
 C         -2.7279371824        3.5700143865        0.6081727403
 H         -2.1573196688        4.3994209135        1.0322143296
 H         -2.0576203680        2.7065512975        0.5868095434
 C         -3.1508716163        3.9215759166       -0.8251052945
 H         -4.1999099062        4.2197452612       -0.8395291233
 H         -2.5636536857        4.7789108328       -1.1609783799
 C         -2.9269651436        2.8038672173       -1.8453014886
 H         -1.8986620784        2.4398319012       -1.7640732964
 H         -3.0440307091        3.2289790892       -2.8458832389
 C         -3.8788555584        1.6050428647       -1.7423068721
 H         -3.7396461226        0.9931064233       -2.6383890111
 H         -4.9118608333        1.9577004432       -1.7234447400
 H         -3.4743232045        2.9948156242        2.5272042077
 H         -4.4800475636        4.1906082204        1.6980147736
 H         -5.4213563711        2.5121609447        0.2360052605
 H         -5.4945288735        1.8876206690        1.8952124767
 O         -3.8039017963        0.1221302631        1.7169719785
 C         -3.0518068933       -1.0275488945        1.5535042529
 O         -2.8937332396       -1.6866288612        2.6003004132
 O         -2.3712856001       -0.7305434621       -1.9977287864
 C         -1.7488752960       -2.6283846741        0.2053506844
 C         -0.2850486526       -2.3070887516        0.3629894984
 C          0.4746682775       -2.8710197217        1.3801294604
 C          1.8060312492       -2.5252636485        1.5381830045
 C          2.4038047922       -1.6112232967        0.6889905766
 C          1.6507472173       -1.0390652359       -0.3280790927
 C          0.3204908153       -1.3919808472       -0.4883980773
 H         -0.2624067006       -0.9431991585       -1.2799134825
 N          2.2480706763       -0.0911016430       -1.1872667382
 S          2.7621314826        1.3262949496       -0.4359320681
 O          1.9838091874        1.6024067043        0.7508099428
 O          2.7463772167        2.3403890708       -1.4674099814
 C          4.4499637865        0.9724682888        0.0061532645
 C          5.3398199372        0.6785719556       -1.0086831375
 C          6.6572299885        0.3988238797       -0.6827776124
 C          7.0604318969        0.4197219914        0.6443145734
 C          6.1554191929        0.7195071579        1.6510539410
 C          4.8355532231        0.9992848802        1.3319025237
 H          4.0946107814        1.2319600071        2.0801420332
 H          6.4704948209        0.7355510894        2.6820438688
 H          8.0863405891        0.2015072932        0.8957230011
 H          7.3640807316        0.1657164987       -1.4626728023
 H          4.9853506192        0.6786670872       -2.0258908043
 H          1.6552033622        0.1445289718       -1.9719678572
 H          3.4386342187       -1.3346318541        0.8096855954
 H          2.3835554566       -2.9697293526        2.3342385292
 H          0.0087992770       -3.5682068442        2.0611785002
 H         -2.0567834874       -3.2144899966        1.0850835168
 C         -2.0625165917       -3.4620550525       -1.0305173594
 C         -1.0665366112       -3.7655930823       -2.1060708009
 C         -1.4890848066       -4.8428647587       -1.1562850313
 H         -2.1240264230       -5.6376168575       -1.5170543067
 H         -0.7772611091       -5.1505434176       -0.4049556307
 H         -1.4268416014       -3.7959684882       -3.1231515849
 H         -0.0687660564       -3.3671440895       -2.0110061699
 H         -3.0897360172       -3.3325982449       -1.3550390766
