  62
        -98.94631081
 C          1.3273332481        1.2201146128        0.5314989202
 C          1.6600305645        0.4614169104       -0.6176908368
 C          2.4197448414       -0.7707852649       -0.3646860990
 C          2.6604029284       -1.1635134264        0.8987493257
 C          3.3825620804       -2.4164595047        1.3152201971
 C          4.9103950380       -2.2734884079        1.3444854306
 C          5.5805020839       -2.2047308824       -0.0282877977
 H          6.6538019472       -2.3228470760        0.1334671499
 H          5.2490284190       -3.0474739683       -0.6357186992
 C          5.3368025779       -0.8923364470       -0.7864429946
 H          6.2809558739       -0.5313820486       -1.2005759688
 H          4.9821704350       -0.1294683149       -0.0894785510
 C          4.3468554793       -1.0031030079       -1.9461866139
 H          4.2269574831       -0.0105225223       -2.3874749057
 H          4.7554723287       -1.6647909948       -2.7130293603
 C          2.9561689994       -1.5167242564       -1.5485196710
 H          2.2759248664       -1.3385271019       -2.3842218372
 H          2.9967444406       -2.5861876471       -1.3433268587
 H          5.1675496937       -1.3820718201        1.9214110594
 H          5.3091917319       -3.1397552438        1.8775206816
 H          3.1092947496       -3.2384789339        0.6525766768
 H          3.0397950708       -2.6536941355        2.3249397176
 O          2.2324740576       -0.4554532921        1.9789094116
 C          1.5865790022        0.7596490012        1.8225819534
 O          1.2817205677        1.3189023073        2.8974132911
 O          1.3505013718        0.7869294522       -1.7907157577
 C          0.5876645335        2.5426474859        0.3982962130
 C         -0.8176131143        2.2437413746       -0.0641332368
 C         -1.3291179456        2.6143600744       -1.2993827375
 C         -2.6097894963        2.2353504678       -1.6677385474
 C         -3.4031562241        1.4875929864       -0.8174149444
 C         -2.9014304397        1.1208652308        0.4253691101
 C         -1.6207430078        1.4981946254        0.7916320502
 H         -1.2253856185        1.2038080141        1.7561670720
 N         -3.6951544138        0.3406714487        1.2936434753
 S         -4.2027560644       -1.1267192698        0.6616660361
 O         -5.3426094824       -0.9058510065       -0.1916749463
 O         -4.4241572744       -1.9853139237        1.8036936758
 C         -2.8223218221       -1.7090860292       -0.3065787927
 C         -2.9052026910       -1.7297200374       -1.6833857597
 C         -1.8038844087       -2.1461189218       -2.4138096990
 C         -0.6445060816       -2.5284935727       -1.7584827895
 C         -0.5753487432       -2.4984799472       -0.3743927898
 C         -1.6721554970       -2.0813204187        0.3605471861
 H         -1.6504476720       -2.0510129594        1.4389679184
 H          0.3312273811       -2.7868034283        0.1337472058
 H          0.2131666776       -2.8506252314       -2.3268952665
 H         -1.8504181110       -2.1666506701       -3.4905429605
 H         -3.8262511343       -1.4253054289       -2.1527754721
 H         -3.2623955436        0.1935711761        2.1947509279
 H         -4.3973370136        1.1751818208       -1.0932170541
 H         -2.9934101220        2.5237638624       -2.6343064108
 H         -0.7212744125        3.1859823474       -1.9804359458
 H          0.5259580990        2.9584077294        1.4139249732
 C          1.3389487681        3.5159794068       -0.4825898286
 C          1.0463274130        4.9817968302       -0.3808236114
 C          2.3412578364        4.4377784324        0.1415808897
 H          3.2494487969        4.6551416008       -0.4003419110
 H          2.4770601368        4.3782984062        1.2120088995
 H          1.0663564463        5.5765531191       -1.2811924008
 H          0.3017178487        5.2936386520        0.3360542345
 H          1.5782376136        3.1091322991       -1.4570592456
