  62
        -98.93738253
 C         -1.0738021596       -0.8717610554        0.9198599565
 C         -1.6961236217       -0.7468348621       -0.3449478289
 C         -2.4485944255        0.4999766756       -0.5971078668
 C         -2.4335536960        1.4710517607        0.3325216448
 C         -3.1577036102        2.7897484671        0.3042005670
 C         -4.6603926291        2.6460123529        0.6089869795
 C         -5.3386814276        1.4313665424       -0.0212866862
 H         -4.8007320034        0.5277683960        0.2717338824
 H         -6.3460702992        1.3586010294        0.3968615942
 C         -5.4680892846        1.4728256312       -1.5419098368
 H         -6.0954269723        2.3217660344       -1.8236212706
 H         -5.9835919907        0.5604057167       -1.8522124333
 C         -4.1556577927        1.5699994816       -2.3201585253
 H         -3.7337411009        2.5685761846       -2.2430289227
 H         -4.3902716900        1.4139045726       -3.3775331146
 C         -3.1082159560        0.5216379295       -1.9542867113
 H         -3.5396661672       -0.4764424847       -2.0930113263
 H         -2.2845637100        0.5860549262       -2.6773968290
 H         -5.1676606849        3.5566702367        0.2868637326
 H         -4.7745806902        2.5608823587        1.6922283894
 H         -2.9935014203        3.2767542823       -0.6530301913
 H         -2.7045410140        3.4166160642        1.0755119629
 O         -1.7500299957        1.3425547677        1.5051086806
 C         -1.0513740189        0.1923800876        1.8219874573
 O         -0.4532169045        0.2428082845        2.9159923409
 O         -1.6549130436       -1.6356233210       -1.2352250915
 C         -0.2488212801       -2.0950557395        1.2900260418
 C          0.6834456612       -2.4016648091        0.1442603304
 C          0.7350870986       -3.6108564267       -0.5335879133
 C          1.5836227718       -3.7614376847       -1.6175480674
 C          2.3758330597       -2.7158036532       -2.0543228971
 C          2.3370681692       -1.5030114893       -1.3737282292
 C          1.5203685961       -1.3709645058       -0.2653956118
 H          1.4835190107       -0.4302108178        0.2628953783
 N          3.1299209845       -0.4191090095       -1.7753961653
 S          2.6625784409        1.1558079113       -1.4667527374
 O          1.2322690386        1.3409510429       -1.5500469408
 O          3.4564830741        1.9421297607       -2.3886860781
 C          3.2504885853        1.4457923244        0.1884889133
 C          4.5880318477        1.2184845004        0.4478966202
 C          5.0665190975        1.4276710876        1.7308417008
 C          4.2036213291        1.8554608926        2.7290718155
 C          2.8647838634        2.0844550906        2.4523205477
 C          2.3824881679        1.8816156421        1.1688835792
 H          1.3425719147        2.0384331364        0.9223061167
 H          2.1849429661        2.4038609520        3.2261350406
 H          4.5735439593        2.0109251064        3.7302003524
 H          6.1071626052        1.2522003709        1.9510210616
 H          5.2243007931        0.8862559574       -0.3552049180
 H          3.5904909421       -0.5231093963       -2.6670558775
 H          3.0109973030       -2.8286117179       -2.9196683824
 H          1.6107212847       -4.7024256277       -2.1460908690
 H          0.0893768297       -4.4215008409       -0.2383719718
 H          0.3668316435       -1.7683696393        2.1449596146
 C         -1.0548104841       -3.2911979415        1.7697090785
 C         -2.3841504919       -3.1013420606        2.4362111869
 C         -2.3073467319       -3.7491281828        1.0879321111
 H         -2.4927393914       -4.8113773897        1.0213324842
 H         -2.6382189356       -3.1932278438        0.2256677675
 H         -2.6228939449       -3.7146968743        3.2920675872
 H         -2.7699513371       -2.0937683882        2.4988010340
 H         -0.4169969718       -4.0651302808        2.1856275693
