  62
        -98.93513740
 C         -2.4304922758       -0.9542517531        0.4893162986
 C         -2.6464374034        0.1784959259       -0.3303794618
 C         -3.8808939299        0.9325582791       -0.0659962310
 C         -4.6970912052        0.5483922256        0.9318357972
 C         -5.9652088900        1.2314085436        1.3711769691
 C         -7.1270640794        1.2240822793        0.3588585077
 C         -7.2024557076        2.4746540874       -0.5256740030
 H         -8.2506461075        2.7557831398       -0.6464463557
 H         -6.7145389234        3.3009857780       -0.0073693489
 C         -6.6133941582        2.3346977063       -1.9326434958
 H         -6.5039219879        3.3379178323       -2.3501934639
 H         -7.3217762984        1.7923272291       -2.5631426393
 C         -5.2703784634        1.6100109164       -2.0270021439
 H         -5.4246435253        0.5348262108       -1.9077908616
 H         -4.8758556640        1.7543841098       -3.0348037201
 C         -4.2186962363        2.0622588177       -0.9948869601
 H         -3.2913456065        2.3359789299       -1.5020888117
 H         -4.5739981859        2.9269684743       -0.4365767020
 H         -8.0498340998        1.1611451117        0.9378055178
 H         -7.0694656465        0.3252133129       -0.2544989241
 H         -6.2784863996        0.7070905084        2.2762630207
 H         -5.7313340324        2.2622278020        1.6464659038
 O         -4.4317752534       -0.5301821348        1.7198340816
 C         -3.3113000641       -1.3145088544        1.5089679061
 O         -3.2057168594       -2.2837455845        2.2881192072
 H          0.9908745424       -1.5465939532       -1.3784041790
 C          1.0838091851       -1.0005223617       -0.4524099476
 C          0.0543073888       -1.0271837455        0.4743775366
 C          0.2124921354       -0.3162647933        1.6614483048
 C          1.3640569180        0.4059174944        1.9063292894
 C          2.3871101262        0.4348339472        0.9740050606
 C          2.2428936711       -0.2735168208       -0.2096783325
 N          3.2836248543       -0.2490961370       -1.1569861114
 S          4.8045452381       -0.7437035274       -0.6404953722
 O          5.4826492478       -1.1977142535       -1.8351938372
 O          4.7073536780       -1.6946890056        0.4429241405
 C          5.5799022164        0.7535540956       -0.0691901342
 C          6.0541653565        0.8297307906        1.2256716399
 C          6.6698151335        1.9984574110        1.6461095966
 C          6.8004159214        3.0638148675        0.7684713869
 C          6.3199365015        2.9706177214       -0.5294123024
 C          5.7043624959        1.8048807361       -0.9562739388
 H          5.3219213237        1.6905861906       -1.9567876139
 H          6.4234201922        3.8014127413       -1.2087349111
 H          7.2798685904        3.9721104171        1.0978792167
 H          7.0439898068        2.0728577945        2.6545880320
 H          5.9261230932       -0.0224987517        1.8739417075
 H          3.0450143372       -0.6995024486       -2.0291264668
 H          3.2879553865        0.9975999718        1.1570297136
 H          1.4682618239        0.9520994306        2.8316303469
 H         -0.5850179840       -0.3426092483        2.3920988976
 C         -1.2088258374       -1.8286171638        0.2725590845
 H         -1.2435339304       -2.5962172897        1.0598151264
 C         -1.2932832461       -2.5135482204       -1.0755396598
 C         -0.5925374192       -3.8186893162       -1.3020961012
 C         -2.0867973365       -3.7783443687       -1.1948786841
 H         -2.6728701081       -3.9380704122       -2.0874567213
 H         -2.5473766575       -4.1613495586       -0.2957311961
 H         -0.0347462339       -4.2366941172       -0.4773803695
 H         -0.1547166764       -4.0103888967       -2.2705507847
 H         -1.3481094703       -1.8102735605       -1.8987798793
 O         -1.8522928297        0.5452776222       -1.2352300822
