  62
        -98.93409308
 C         -2.4046968305       -0.8146112988        0.2141193275
 C         -2.7057090599        0.5568877774        0.0494946124
 C         -4.1019564397        0.9525702021        0.3124126606
 C         -4.9853434645        0.0168557846        0.7018173861
 C         -6.4536806382        0.1988835423        0.9704003413
 C         -7.2791243895       -0.1213212268       -0.2872646632
 C         -7.4758611687        1.0539360206       -1.2439713983
 H         -7.9552573875        0.6630624984       -2.1443897143
 H         -8.1631921580        1.7724468122       -0.7925645574
 C         -6.1959869239        1.7902198704       -1.6488257637
 H         -5.4062778324        1.0672531029       -1.8615938358
 H         -6.3990156044        2.3283033282       -2.5768659962
 C         -5.7151790962        2.7928213442       -0.5890910536
 H         -6.5080273505        2.9434359404        0.1433761166
 H         -5.5419657337        3.7619452758       -1.0614326436
 C         -4.4123429094        2.4134088117        0.1313682619
 H         -3.5578301179        2.8083582563       -0.4271990627
 H         -4.3925696427        2.8984512115        1.1129750919
 H         -6.7856718323       -0.9443008774       -0.8106728841
 H         -8.2649822119       -0.4750728205        0.0210771370
 H         -6.7179703783       -0.5172082972        1.7512655165
 H         -6.6581380026        1.2025829963        1.3306454548
 O         -4.6472290736       -1.2932002037        0.8604248753
 C         -3.3632934851       -1.7425419831        0.6183688483
 O         -3.1993304616       -2.9660967200        0.8024547091
 O         -1.8533037393        1.4137543265       -0.3042039148
 C         -0.9996801305       -1.3197081890       -0.0510439376
 C          0.0057121178       -0.6093109574        0.8232261591
 C         -0.2887011803       -0.3943322528        2.1674280455
 C          0.6215348265        0.2266583621        3.0001517249
 C          1.8563569477        0.6250183656        2.5187407234
 C          2.1634190463        0.4089992707        1.1814692650
 C          1.2389839484       -0.1991441415        0.3427573601
 H          1.5074105853       -0.3520147266       -0.6891923098
 N          3.4027061809        0.8061494775        0.6537040691
 S          4.1289054638       -0.2000297337       -0.4931625174
 O          3.6375355333        0.1497858541       -1.8019312613
 O          3.9781722433       -1.5829803641       -0.1010746341
 C          5.8339376300        0.3012147509       -0.3364624175
 C          6.2759517533        1.4040296155       -1.0425715737
 C          7.5933461332        1.8087840801       -0.8964274095
 C          8.4417003342        1.1093178112       -0.0509377127
 C          7.9843148779        0.0035406382        0.6500745427
 C          6.6679264708       -0.4063446961        0.5090014216
 H          6.2716479738       -1.2659481298        1.0253527513
 H          8.6470810746       -0.5402660700        1.3037474202
 H          9.4666957845        1.4260268276        0.0600805875
 H          7.9534957833        2.6659990782       -1.4420394412
 H          5.5829155750        1.9105022399       -1.6940076454
 H          4.0579187608        1.0992641632        1.3654265965
 H          2.5710229819        1.1035016904        3.1710455055
 H          0.3727291410        0.3919916693        4.0378147814
 H         -1.2471287569       -0.7196640505        2.5498776826
 H         -0.9985640140       -2.3827936270        0.2355689370
 C         -0.6816347961       -1.2178738803       -1.5288073801
 C          0.2657142233       -2.1859324265       -2.1690216028
 C         -1.2016246296       -2.2682122216       -2.4617658570
 H         -1.5514468505       -1.9653465427       -3.4372144409
 H         -1.7651199683       -3.0810176594       -2.0265042936
 H          0.9304883949       -1.8222174174       -2.9388500316
 H          0.7055145815       -2.9458643405       -1.5399846919
 H         -0.6757186294       -0.1923310376       -1.8816358966
