  62
        -98.94027000
 C         -1.3190883556        1.2280493105        0.2122147582
 C         -2.4417808359        1.2225262652       -0.6493638935
 C         -3.2615777349       -0.0036479962       -0.6788026552
 C         -2.8886196052       -1.0462040805        0.0867540954
 C         -3.5826085911       -2.3720798630        0.2522460084
 C         -4.8367859331       -2.2805433344        1.1371307953
 C         -5.7371111618       -1.0796209467        0.8599555912
 H         -6.5195433499       -1.0679794959        1.6234588053
 H         -5.1579264111       -0.1618907643        0.9769686459
 C         -6.4186379416       -1.0790736939       -0.5061911282
 H         -7.0318097284       -1.9780992690       -0.6016773808
 H         -7.0894525086       -0.2164347345       -0.5343441474
 C         -5.4866332736       -0.9956201582       -1.7165815930
 H         -6.1056630464       -0.7634578621       -2.5882303425
 H         -5.0192333874       -1.9556084036       -1.9182445214
 C         -4.4286651243        0.1001001048       -1.6309243701
 H         -4.9190022272        1.0538852619       -1.4047248662
 H         -3.9859101701        0.2347568813       -2.6253878810
 H         -4.5108097132       -2.2163426844        2.1780528138
 H         -5.4098130200       -3.2018828885        1.0197508231
 H         -3.8238512915       -2.7915458556       -0.7199851989
 H         -2.8701551381       -3.0416474842        0.7380469649
 O         -1.7870010193       -1.0030620897        0.8870856672
 C         -0.9736289386        0.1107520396        0.9727921441
 O         -0.0088626281       -0.0232355570        1.7488829643
 O         -2.7596888046        2.2091749532       -1.3669051803
 C         -0.4488098955        2.4743385068        0.2411857709
 C          0.8457508252        2.1306992782       -0.4504517275
 C          0.9240489400        2.2118028508       -1.8378074852
 C          2.0649159663        1.8085257040       -2.5068630275
 C          3.1457965685        1.2985695564       -1.8079598458
 C          3.0702560713        1.2023470003       -0.4251242197
 C          1.9370191416        1.6364273852        0.2479259756
 H          1.8910364759        1.5448341757        1.3212386385
 N          4.1492718439        0.6398150323        0.2930899147
 S          4.4852340717       -0.9675778728       -0.0423369886
 O          5.3762165339       -1.4022418403        1.0095825725
 O          4.9982113730       -1.0615097077       -1.3863602593
 C          2.9290260338       -1.8310292811        0.0742968545
 C          2.5797821752       -2.4106296206        1.2766644711
 C          1.3600252637       -3.0573711934        1.3805252877
 C          0.5095186679       -3.1021255990        0.2881099712
 C          0.8680342432       -2.5031438651       -0.9087680032
 C          2.0904596990       -1.8618008696       -1.0216099228
 H          2.4049288115       -1.3925034831       -1.9396681732
 H          0.1961562039       -2.5275963757       -1.7525939471
 H         -0.4432444151       -3.6007513098        0.3711672077
 H          1.0711006032       -3.5138284187        2.3135626686
 H          3.2706148212       -2.3540790600        2.1027652132
 H          4.0412149282        0.7426904177        1.2931247179
 H          4.0327949638        0.9512522875       -2.3126546923
 H          2.1124731856        1.8840793112       -3.5827870400
 H          0.0696168651        2.5812709543       -2.3873452867
 H         -0.9796983464        3.2160531844       -0.3699111633
 C         -0.2717155315        3.0286120974        1.6386890060
 C          0.2858161529        4.4090878878        1.8110336911
 C         -1.1593684383        4.1423498929        2.1034933688
 H         -1.4870922233        4.1441366113        3.1323255524
 H         -1.8984288395        4.5162543020        1.4101683915
 H          0.9524510155        4.5978455180        2.6385986038
 H          0.5286153279        4.9625530715        0.9165118073
 H         -0.0012390980        2.2781416026        2.3709845390
