  62
        -98.93567246
 C         -2.1617499725       -0.3425768140        0.4474687422
 C         -3.2641955674       -0.7276800577       -0.3553468762
 C         -4.2033402983        0.3488491889       -0.7125686473
 C         -3.9573059602        1.6076224290       -0.3097841459
 C         -4.8497316360        2.7853759218       -0.5724175431
 C         -5.8626829612        2.9799690746        0.5645105271
 C         -6.6059523546        1.7021374669        0.9539196554
 H         -5.8941405750        0.9946294854        1.3855414435
 H         -7.3144757291        1.9657085939        1.7421675090
 C         -7.3549854534        1.0256810280       -0.2027131395
 H         -8.3492734668        0.7381842535        0.1454265775
 H         -7.4903212420        1.7342752768       -1.0204874350
 C         -6.6858902854       -0.2422539149       -0.7365361560
 H         -7.3982756115       -0.7527882373       -1.3898675290
 H         -6.4632486467       -0.9161569646        0.0945057977
 C         -5.3983331551       -0.0294211531       -1.5426116531
 H         -5.1426702626       -0.9809687535       -2.0175208717
 H         -5.5725086063        0.7104349077       -2.3262629357
 H         -5.3285816812        3.3472070295        1.4440230288
 H         -6.5810621610        3.7431605869        0.2598181292
 H         -4.2257397118        3.6774858176       -0.6485106971
 H         -5.3707448289        2.6361725466       -1.5161098634
 O         -2.8736688720        1.9453919162        0.4369713895
 C         -1.9655576907        0.9835517124        0.8435091862
 O         -1.0398501042        1.4258034250        1.5551797450
 H          1.5252672537       -0.6821215602        1.0871213719
 C          1.2657267759       -1.0849460478        0.1193656453
 C         -0.0408667274       -1.4681440803       -0.1450718483
 C         -0.3558481828       -1.9573553799       -1.4103709607
 C          0.6213034633       -2.0598989043       -2.3822552755
 C          1.9225702347       -1.6691078246       -2.1178975620
 C          2.2466307959       -1.1771398686       -0.8592301078
 N          3.5694872323       -0.8031620257       -0.5590149386
 S          3.8165692970        0.5789434324        0.3830699089
 O          3.6053281521        0.2398923063        1.7674492887
 O          3.0455540282        1.6818307679       -0.1458174893
 C          5.5562775497        0.8462410446        0.0936871424
 C          6.4695027082        0.0810703724        0.7943866370
 C          7.8217072633        0.2640184937        0.5528327774
 C          8.2362957051        1.2032375889       -0.3799376735
 C          7.3084053822        1.9651738857       -1.0738130133
 C          5.9541992510        1.7860259757       -0.8381397441
 H          5.1966583872        2.3610163356       -1.3463943768
 H          7.6333978631        2.6972230098       -1.7954606645
 H          9.2893373342        1.3446942534       -0.5651349483
 H          8.5461257839       -0.3244001340        1.0923709676
 H          6.1002823256       -0.6289023046        1.5157812783
 H          4.1533775350       -0.7754940001       -1.3849931796
 H          2.6827672611       -1.7433296121       -2.8809472549
 H          0.3660179202       -2.4407331936       -3.3597275780
 H         -1.3741830488       -2.2489878551       -1.6175112889
 C         -1.0990867237       -1.3237892320        0.9190140520
 H         -0.6262700176       -0.8360046138        1.7863281171
 C         -1.6806440295       -2.6499869811        1.3950618567
 C         -1.2670866288       -3.9808614801        0.8472141829
 C         -0.8308846220       -3.5721065732        2.2192527899
 H         -1.2720817315       -4.0584762761        3.0761626411
 H          0.2047131399       -3.2951008336        2.3537579172
 H         -2.0305628452       -4.7375131632        0.7492780419
 H         -0.5241461199       -4.0061504543        0.0659795880
 H         -2.7197802116       -2.5596469171        1.6917601627
 O         -3.4739851795       -1.8995015442       -0.7600034373
