  62
        -98.94045732
 C         -1.5010330426       -1.2349795444       -0.0177489501
 C         -2.5849804426       -0.9481954506        0.8465308307
 C         -3.3592596675        0.2775624688        0.5724940958
 C         -2.9765363628        1.0676363557       -0.4475892416
 C         -3.6146581532        2.3440294464       -0.9271520075
 C         -4.9022359288        2.0959992572       -1.7300425345
 C         -5.8420548991        1.0518055512       -1.1329333829
 H         -6.6522860601        0.8869582460       -1.8482114550
 H         -5.3073535755        0.1060285519       -1.0273470459
 C         -6.4714915691        1.4316353397        0.2052756308
 H         -7.0423738802        2.3549356551        0.0832078910
 H         -7.1765362673        0.6388915503        0.4685938152
 C         -5.5010458368        1.6118045484        1.3743931930
 H         -4.9869741100        2.5671034085        1.3130206619
 H         -6.0983574637        1.6398512415        2.2904834835
 C         -4.4934677740        0.4795128869        1.5479607213
 H         -4.0204935115        0.5821347429        2.5320756965
 H         -5.0310446140       -0.4748575665        1.5866438245
 H         -5.4301566233        3.0449501539       -1.8380174761
 H         -4.6171893680        1.7535661494       -2.7279199106
 H         -3.8032054105        3.0054992858       -0.0869180794
 H         -2.8901543567        2.8342101726       -1.5813202214
 O         -1.9145837820        0.7600392164       -1.2447615650
 C         -1.1586581888       -0.3849050563       -1.0680957741
 O         -0.2380111597       -0.5153533103       -1.8977380990
 O         -2.9041653575       -1.6905210298        1.8133142106
 C         -0.6647462548       -2.4721848443        0.2684831056
 C          0.6845925421       -1.9895830382        0.7373885837
 C          0.8526898798       -1.6069986558        2.0655860538
 C          2.0437185059       -1.0532542689        2.4967905016
 C          3.0828886466       -0.8418309783        1.6067207292
 C          2.9176294496       -1.2085108143        0.2780530503
 C          1.7375468581       -1.8045898256       -0.1446262277
 H          1.6255221100       -2.0769730499       -1.1816578651
 N          3.9406694685       -0.9346579368       -0.6485310356
 S          4.5910951869        0.6073455902       -0.5955176416
 O          4.9892888029        0.9063032505       -1.9538465561
 O          5.6530654780        0.6404564706        0.3811636057
 C          3.2769726067        1.6993542024       -0.0704190737
 C          2.0590141370        1.6545984199       -0.7191373711
 C          1.0478831996        2.5048957258       -0.3011715887
 C          1.2681650329        3.3852890954        0.7462628446
 C          2.4997632288        3.4239596399        1.3815534777
 C          3.5131945670        2.5724742220        0.9727820066
 H          4.4818430678        2.5612408217        1.4457775646
 H          2.6707112511        4.1100243049        2.1954228063
 H          0.4744871997        4.0414208035        1.0675724864
 H          0.0897688814        2.4589809966       -0.7951147202
 H          1.8845642630        0.9577228945       -1.5239843307
 H          3.6930640564       -1.1801416393       -1.5966428797
 H          4.0117827306       -0.3911871596        1.9174534058
 H          2.1617117330       -0.7691635839        3.5312250631
 H          0.0280776277       -1.7344379207        2.7527016045
 H         -1.1643482781       -2.9765536360        1.1058215200
 C         -0.6084939722       -3.4194557156       -0.9107663791
 C         -0.0979656862       -4.8134354668       -0.7046460959
 C         -1.5549410616       -4.5794959654       -0.9646673256
 H         -1.9614111301       -4.8678710101       -1.9225744136
 H         -2.2467643438       -4.6992246160       -0.1438784273
 H          0.4977675467       -5.2662328489       -1.4824753568
 H          0.2011744622       -5.0900178000        0.2950199530
 H         -0.3791205517       -2.9295322583       -1.8491897119
