  62
        -98.93382336
 C          1.7001178402        1.3188495741        0.4094143119
 C          2.5540553099        0.8960003663       -0.6354636484
 C          3.5466400229       -0.1462603497       -0.2954483140
 C          3.5650334756       -0.6595267461        0.9468081861
 C          4.4789363808       -1.7122447718        1.5205723300
 C          5.9754900812       -1.5529063329        1.2089547577
 C          6.5135565772       -2.6229294716        0.2580566952
 H          7.5919560186       -2.7128857724        0.4071203441
 H          6.0670162704       -3.5827734410        0.5258199783
 C          6.2734137688       -2.3490218732       -1.2256401954
 H          6.9241261271       -1.5345156588       -1.5515312825
 H          6.5719648209       -3.2427656252       -1.7786863473
 C          4.8332806686       -1.9959922881       -1.6046580084
 H          4.1284577098       -2.6186516806       -1.0556472207
 H          4.7038514174       -2.2274136632       -2.6640852849
 C          4.4898805836       -0.5119835209       -1.4096957677
 H          5.4090956340        0.0700049722       -1.2920411765
 H          4.0075105662       -0.1276704699       -2.3138065022
 H          6.1661864626       -0.5591620805        0.8060240172
 H          6.5237044183       -1.6301127206        2.1493444208
 H          4.3177867851       -1.6710559003        2.6001368084
 H          4.1343274913       -2.6949405790        1.1906588866
 O          2.6736726977       -0.2707045284        1.9039262993
 C          1.7391555770        0.7164620392        1.6692790643
 O          1.0064078467        0.9720895618        2.6471878403
 H         -1.6532067260        1.9002467586        1.4851087987
 C         -1.7097696662        1.6644563190        0.4307805713
 C         -0.5950880098        1.8671365264       -0.3700217589
 C         -0.6675675163        1.5226362119       -1.7154173564
 C         -1.8402053858        1.0126654814       -2.2430125242
 C         -2.9576462643        0.8298822235       -1.4464579459
 C         -2.8860144766        1.1476074668       -0.0965621476
 N         -4.0033608459        0.9533830917        0.7296940619
 S         -4.9726615644       -0.3851132185        0.4971526368
 O         -5.8907876395       -0.1368697894       -0.5866763830
 O         -5.5774360319       -0.6391089934        1.7858252537
 C         -3.8762402597       -1.7219904770        0.0522666633
 C         -2.7768736575       -1.9731178965        0.8490106617
 C         -1.9251810823       -3.0109079697        0.5068599230
 C         -2.1882341847       -3.7799979423       -0.6165068852
 C         -3.2994170567       -3.5190906416       -1.4029414457
 C         -4.1515638900       -2.4789818534       -1.0685881250
 H         -5.0224054181       -2.2358383521       -1.6556449661
 H         -3.5020249364       -4.1193151491       -2.2752149818
 H         -1.5215589326       -4.5863015249       -0.8785157951
 H         -1.0580427717       -3.2095404747        1.1168111990
 H         -2.5907408186       -1.3632404057        1.7190301360
 H         -3.8327789348        1.1282823310        1.7086510761
 H         -3.8823426038        0.4518313275       -1.8515738387
 H         -1.8874502464        0.7546069505       -3.2899300425
 H          0.2071318601        1.6404754583       -2.3355195097
 C          0.6654165314        2.4224933247        0.2481541116
 H          0.4180466982        2.7402293337        1.2702639329
 C          1.1810734614        3.6291958456       -0.5095095753
 C          0.4565664429        4.9323712448       -0.3658364059
 C          1.8108939088        4.7551431847        0.2511600084
 H          2.6519976007        5.2679914574       -0.1906126413
 H          1.8738117784        4.6617255359        1.3259550915
 H          0.3649888221        5.5690047321       -1.2322503906
 H         -0.4003308730        4.9589652030        0.2907215771
 H          1.6019132517        3.3900358710       -1.4761749648
 O          2.5164593791        1.3543301698       -1.8072512610
