  62
        -98.94002464
 C         -2.4931263872       -1.2708985138       -0.1366910604
 C         -2.2739991130       -0.0426117025       -0.8060618164
 C         -3.4629143509        0.8014964494       -0.9987080033
 C         -4.6587716883        0.3692310766       -0.5591297475
 C         -5.9337978016        1.1578633162       -0.6266987331
 C         -6.1354538943        1.9919624435        0.6465516010
 C         -4.9079468559        2.8074645827        1.0534390284
 H         -5.1765455689        3.3754903565        1.9466934266
 H         -4.1024625161        2.1256730515        1.3365732519
 C         -4.3970452818        3.7690121996       -0.0285865313
 H         -4.1798578012        4.7341250797        0.4337912862
 H         -5.1747819669        3.9343677899       -0.7749517670
 C         -3.1151803254        3.3130637746       -0.7283343369
 H         -2.7268898007        4.1528100159       -1.3111223126
 H         -2.3573434964        3.0571673618        0.0172731792
 C         -3.2655301533        2.1235963070       -1.6851108177
 H         -4.0753821345        2.3179184609       -2.3913159426
 H         -2.3315090609        2.0318796815       -2.2478757521
 H         -6.3832717903        1.3152549456        1.4674307806
 H         -6.9829100724        2.6615503305        0.4897134428
 H         -5.9072360941        1.8072145142       -1.4994146159
 H         -6.7657951797        0.4593250267       -0.7285465574
 O         -4.8330336125       -0.8289806314        0.0547598708
 C         -3.7581494903       -1.6678377596        0.2975553882
 O         -4.0527249274       -2.7207050602        0.8984377004
 H          1.3266739701       -1.4970265762       -0.2889719210
 C          0.9547762421       -1.1874806925        0.6723155991
 C         -0.3476861349       -1.4689707194        1.0507606435
 C         -0.7898829903       -1.0438778405        2.3019381403
 C          0.0476826528       -0.3423110975        3.1458716690
 C          1.3403149895       -0.0402469651        2.7536621126
 C          1.7941935544       -0.4650949510        1.5111262353
 N          3.1205806779       -0.2023075445        1.1155760754
 S          3.4281732836        0.3567418841       -0.4502788219
 O          2.7249643727        1.5976090690       -0.6878815034
 O          3.2059375850       -0.7115204256       -1.3896947330
 C          5.1790771603        0.6724375757       -0.3114180924
 C          5.6288898997        1.9688698060       -0.1495653329
 C          6.9901831257        2.1958593852       -0.0196333533
 C          7.8735485379        1.1275751742       -0.0504587883
 C          7.4072945312       -0.1685229300       -0.2145096232
 C          6.0477749028       -0.4017424779       -0.3465158672
 H          5.6402482675       -1.3894562620       -0.4848364707
 H          8.0976315947       -0.9961384613       -0.2407890476
 H          8.9323368066        1.3065080498        0.0506153182
 H          7.3553332209        3.2026984200        0.1041312758
 H          4.9052927193        2.7682470958       -0.1402078345
 H          3.5904212818        0.4049626086        1.7756402154
 H          1.9928870652        0.5197572625        3.4068254406
 H         -0.3093956740       -0.0179614751        4.1119235428
 H         -1.8066943289       -1.2681253250        2.5967235549
 C         -1.3255191114       -2.1970435519        0.1602317000
 H         -1.7444620178       -3.0396857801        0.7292028553
 C         -0.7165985605       -2.7296366247       -1.1183630791
 C          0.0517371545       -4.0156047411       -1.0969612423
 C         -1.2986218223       -3.9597360992       -1.7443752760
 H         -1.3589387567       -4.0099935514       -2.8212028046
 H         -2.1300050948       -4.4279998986       -1.2374122122
 H          0.9234040235       -4.1022783589       -1.7278695118
 H          0.1386163404       -4.5280242665       -0.1507193807
 H         -0.3764025987       -1.9445772398       -1.7844095335
 O         -1.1468728446        0.3362878533       -1.2214708269
