  62
        -98.93482875
 C          2.0944479165        0.9767441533        0.3224749111
 C          2.0416054450        0.0215379747       -0.7205445046
 C          2.2165169648       -1.3908635227       -0.3279900506
 C          2.3837064243       -1.7109842361        0.9672282568
 C          2.5133129396       -3.0554033736        1.6532330856
 C          2.8643941285       -4.3104788892        0.8575702733
 C          4.2586512928       -4.3076677653        0.2328394120
 H          5.0001914785       -4.3492002235        1.0343882758
 H          4.3629721585       -5.2150742198       -0.3659388366
 C          4.5870915998       -3.0982138585       -0.6390106458
 H          4.6123800779       -2.1972859388       -0.0226267718
 H          5.5929855718       -3.2408342710       -1.0429453363
 C          3.6420579288       -2.8648540481       -1.8167856649
 H          3.5608746158       -3.7772145332       -2.4105798541
 H          4.0890713266       -2.0924984381       -2.4480933732
 C          2.2243330568       -2.3912587783       -1.4473507097
 H          1.7952165199       -1.8823901248       -2.3156462288
 H          1.5689896475       -3.2272993899       -1.2122771592
 H          2.8194826073       -5.1454409988        1.5623036724
 H          2.1098779808       -4.4974289089        0.0989588409
 H          3.2571826900       -2.9126254559        2.4435949832
 H          1.5538622713       -3.2214220913        2.1566434122
 O          2.4102552531       -0.7561874795        1.9432491225
 C          2.2587539652        0.5849935941        1.6518340610
 O          2.3050100521        1.3320699359        2.6519835529
 H         -0.2822653225        0.9959287711       -0.6808822385
 C         -0.5610162530        1.9360256067       -0.2301932564
 C          0.4110381136        2.8160510705        0.2182205691
 C          0.0071158263        4.0247887089        0.7755057674
 C         -1.3358056821        4.3323972520        0.8945681110
 C         -2.3029788583        3.4311459780        0.4866243315
 C         -1.9092253345        2.2239395785       -0.0779224821
 N         -2.8533518900        1.2750384124       -0.5027716283
 S         -2.4846425415       -0.3541353346       -0.2305950033
 O         -1.8174267784       -0.5045063147        1.0438503778
 O         -1.8011542700       -0.8797042156       -1.3846272199
 C         -4.1289273330       -1.0436756919       -0.1504873000
 C         -4.7469927718       -1.1704577209        1.0793269207
 C         -6.0386270145       -1.6706803449        1.1324072572
 C         -6.6882943334       -2.0301229572       -0.0390234904
 C         -6.0547307151       -1.8984664007       -1.2658189769
 C         -4.7627951070       -1.4002500442       -1.3258189740
 H         -4.2255659645       -1.2880950462       -2.2531479638
 H         -6.5612000667       -2.1819467665       -2.1742406476
 H         -7.6935260724       -2.4182881039        0.0051096340
 H         -6.5316639832       -1.7776576583        2.0851361869
 H         -4.1986044193       -0.8865950683        1.9634369206
 H         -3.7960295836        1.4987423629       -0.2131524430
 H         -3.3517567301        3.6567457319        0.6057507611
 H         -1.6341973152        5.2732764789        1.3312108093
 H          0.7542863671        4.7166268677        1.1338758527
 C          1.8795266436        2.4663061863        0.1191961486
 H          2.3893246908        2.9600554693        0.9596167014
 C          2.4602474148        3.0062880569       -1.1735783456
 C          2.9559217725        4.4187489642       -1.2309372950
 C          3.9303264275        3.2806357509       -1.2610280897
 H          4.4400043189        3.0528169428       -2.1847523109
 H          4.5238743686        3.0934877640       -0.3776503233
 H          2.7942051505        4.9813681130       -2.1373232780
 H          2.9031438399        5.0099628047       -0.3296011320
 H          1.9787680292        2.6034555255       -2.0550802958
 O          1.8520061919        0.3041961104       -1.9335547708
