  62
        -98.94492056
 C          1.9679760144        0.8502606423        0.0676918236
 C          2.2516237090       -0.1178375648        1.0582189098
 C          2.3251547842       -1.5090845529        0.5960209244
 C          2.0912695624       -1.7829284882       -0.7006927734
 C          2.1614071486       -3.1518722125       -1.3127060921
 C          3.5681998215       -3.4549290236       -1.8473956403
 C          4.6849096507       -3.1600303802       -0.8460613569
 H          5.6286402030       -3.4380092789       -1.3199607066
 H          4.7207517608       -2.0840660308       -0.6613409054
 C          4.5472349999       -3.8984643969        0.4925381764
 H          3.8582179396       -4.7366857729        0.3840092890
 H          5.5203717322       -4.3104066451        0.7674649099
 C          4.0917643765       -3.0180340295        1.6577059013
 H          4.7223827389       -2.1272422388        1.7123226994
 H          4.2352533579       -3.5788457920        2.5850524058
 C          2.6258991844       -2.5667116541        1.6208477407
 H          1.9743556064       -3.4322406877        1.4806457798
 H          2.3892784563       -2.1171348678        2.5900185122
 H          3.6064125623       -4.5057374079       -2.1399797281
 H          3.7367872483       -2.8462569317       -2.7386167298
 H          1.8760171230       -3.8902081588       -0.5655405966
 H          1.4475683855       -3.1913320897       -2.1374384985
 O          1.8103828586       -0.8276909058       -1.6229163971
 C          1.7254872351        0.5072488218       -1.2626810014
 O          1.4492159201        1.2780617822       -2.2024147044
 H         -0.4365871658        0.9455514594        0.8959428577
 C         -0.6388023580        1.9025147974        0.4355665985
 C          0.4127285984        2.7648530197        0.1512724877
 C          0.1231588372        3.9962693635       -0.4217041500
 C         -1.1833194613        4.3317936911       -0.7339277677
 C         -2.2198174360        3.4484716814       -0.4969520376
 C         -1.9420872839        2.2217555950        0.0967810660
 N         -2.9691015003        1.3015234960        0.3755877060
 S         -2.6081496817       -0.3446040079        0.2470249162
 O         -2.0018584932       -0.7828997029        1.4804564966
 O         -1.8675258485       -0.6109166088       -0.9655836750
 C         -4.2562853610       -1.0168623136        0.1275352249
 C         -5.0071193125       -1.1363567150        1.2820377035
 C         -6.3001134359       -1.6267264795        1.1922197275
 C         -6.8181990956       -1.9871694270       -0.0430684865
 C         -6.0521633446       -1.8638114400       -1.1923903133
 C         -4.7585975112       -1.3721318613       -1.1098128881
 H         -4.1221799892       -1.2644451500       -1.9737510616
 H         -6.4555157598       -2.1480111207       -2.1509083849
 H         -7.8243585787       -2.3695839778       -0.1103248256
 H         -6.8975742565       -1.7264825716        2.0839233994
 H         -4.5571564979       -0.8525751140        2.2190160953
 H         -3.8320218767        1.5261423464       -0.1017238391
 H         -3.2336907013        3.7014368605       -0.7673343749
 H         -1.3941530575        5.2885525568       -1.1871708395
 H          0.9214964136        4.6871188074       -0.6381569430
 C          1.8124419596        2.3033322255        0.4778630329
 H          1.9347598861        2.3148526120        1.5718698418
 C          2.8942355091        3.1600674452       -0.1456228871
 C          3.3873784599        4.3887158865        0.5571369478
 C          4.2567821582        3.1711533736        0.4779663360
 H          5.1200238187        3.1914575540       -0.1700864647
 H          4.3952009143        2.5799623429        1.3715844617
 H          3.6581946475        5.2483701773       -0.0370115782
 H          2.9428257798        4.6309362394        1.5105439275
 H          2.8381402123        3.1724224217       -1.2284313165
 O          2.4312670036        0.1698471657        2.2743305665
