  62
        -98.92810461
 C         -2.3015058122       -0.8601602514        0.0327281662
 C         -2.9094506377       -0.0191688719        0.9970727474
 C         -3.8553924005        0.9966534171        0.5057487983
 C         -4.0800808260        1.0980219888       -0.8174950522
 C         -4.9428151832        2.0537275811       -1.6150873062
 C         -5.9756796749        2.9381537304       -0.9220274609
 C         -7.1618415946        2.1832523650       -0.3225313055
 H         -7.7735453904        2.8946183563        0.2365540314
 H         -7.7717607366        1.7908532047       -1.1401241144
 C         -6.8056198168        1.0106762025        0.5878038816
 H         -7.7398135062        0.5559097211        0.9284952272
 H         -6.2687517627        0.2514501215        0.0154842589
 C         -5.9861801882        1.3695187772        1.8256809122
 H         -6.4965079130        2.1519586699        2.3908477487
 H         -5.9374667634        0.4787524836        2.4580482408
 C         -4.5417325667        1.8237825091        1.5548171570
 H         -3.9669918157        1.6888750986        2.4758845569
 H         -4.5014938121        2.8798250228        1.2985254184
 H         -5.4967353226        3.5575995919       -0.1694770007
 H         -6.3682228233        3.6153894813       -1.6854379001
 H         -4.2430652359        2.6983392108       -2.1582753213
 H         -5.4451378521        1.4414387396       -2.3707344066
 O         -3.4469632741        0.2881774473       -1.7127724573
 C         -2.5551623062       -0.7043892965       -1.3302321552
 O         -2.0841348679       -1.3416508553       -2.2862928910
 O         -2.6655580487       -0.1066666266        2.2324782546
 C         -1.3222204346       -1.9089998786        0.5456580326
 C          0.0561686172       -1.6123911458        0.0088955686
 C          0.5792344550       -2.0832648868       -1.1898624333
 C          1.8452461447       -1.7029693061       -1.6021118934
 C          2.6174858836       -0.8410255519       -0.8459235168
 C          2.1061743679       -0.3547042746        0.3497265032
 C          0.8428304624       -0.7482252900        0.7656607427
 H          0.4481108043       -0.3601618806        1.6965294626
 N          2.8620037269        0.5458685277        1.1178163305
 S          4.4806216079        0.2167763966        1.4073287807
 O          4.7395667889       -1.2041588976        1.4138718654
 O          4.7981765587        0.9342622085        2.6225938871
 C          5.3255638994        0.9877090091        0.0428487250
 C          5.0983447342        2.3303173100       -0.1877063606
 C          5.7536739863        2.9489284905       -1.2402042789
 C          6.6230049360        2.2195556351       -2.0377948961
 C          6.8441278319        0.8734597427       -1.7904516553
 C          6.1907114075        0.2484233305       -0.7396160607
 H          6.3285121469       -0.7969542618       -0.5129748934
 H          7.5211978499        0.3087764511       -2.4110623726
 H          7.1315153884        2.7036935566       -2.8565599332
 H          5.5845736915        3.9957309553       -1.4352531246
 H          4.4186630828        2.8622359428        0.4570401866
 H          2.3973074853        0.8594792446        1.9573668603
 H          3.6008785750       -0.5434484783       -1.1708593144
 H          2.2318775812       -2.0808665281       -2.5364932595
 H         -0.0084140504       -2.7198079513       -1.8262236631
 H         -1.2765332431       -1.7061943620        1.6273654208
 C         -1.8774125594       -3.3238928940        0.4429450347
 C         -2.0754262945       -4.1134021432       -0.8148128632
 C         -1.0298431056       -4.5310208850        0.1742973900
 H         -1.2077191192       -5.4201355162        0.7609353979
 H          0.0070239743       -4.3713588734       -0.0770979046
 H         -2.9752567847       -4.7085746338       -0.8855216908
 H         -1.7865564464       -3.6721040055       -1.7534572116
 H         -2.6619340077       -3.4558130673        1.1848871806
