  62
        -98.94472403
 C         -1.5023005783       -1.7748597070       -0.4703286767
 C         -1.5373982031       -0.6024974769       -1.2661731949
 C         -2.7425759172        0.2327732953       -1.1271544817
 C         -3.7102727822       -0.1298023042       -0.2681756415
 C         -4.9600647983        0.6548604332        0.0048011869
 C         -4.7669464433        1.6314157012        1.1726815414
 C         -3.5136632953        2.5000914172        1.0591932729
 H         -3.5126701605        3.1823905451        1.9126453930
 H         -2.6220144673        1.8753589281        1.1556746093
 C         -3.4142587479        3.3098726529       -0.2407714898
 H         -3.0967404902        4.3252803162        0.0059429649
 H         -4.3953675606        3.3802633475       -0.7134208375
 C         -2.3986205650        2.7585983396       -1.2431244909
 H         -1.4516880322        2.5780661755       -0.7275324811
 H         -2.2199389575        3.5235543943       -2.0042613622
 C         -2.8159867562        1.4740469163       -1.9711118482
 H         -3.8179461252        1.5969215941       -2.3889129789
 H         -2.1155190458        1.3178284820       -2.7969353194
 H         -5.6487343989        2.2724923441        1.2336907796
 H         -4.7004072480        1.0558710350        2.0989996616
 H         -5.2432310593        1.1997926905       -0.8938046053
 H         -5.7562099149       -0.0472002921        0.2594957475
 O         -3.6406877753       -1.2572915438        0.4862967250
 C         -2.5375410017       -2.0899861688        0.4134949387
 O         -2.5972273017       -3.0832270893        1.1678342174
 O         -0.6308360018       -0.2540411079       -2.0643395962
 C         -0.3318066528       -2.7450603923       -0.4505284731
 C          0.6466171070       -2.3803252657        0.6395269599
 C          1.2824173648       -3.3620836629        1.3911771528
 C          2.1786979063       -3.0119958658        2.3855774475
 C          2.4484786795       -1.6830842760        2.6569409858
 C          1.8018194415       -0.6915338764        1.9248272982
 C          0.9210394621       -1.0490671552        0.9144314079
 H          0.4173082711       -0.2760280624        0.3597256025
 N          2.0091553882        0.6556958747        2.2255924617
 S          1.6683843848        1.9326438735        1.2104175447
 O          2.1584784796        3.0815031689        1.9429881119
 O          0.2696540584        1.9493716148        0.8696927628
 C          2.7002606748        1.6867846653       -0.2222712935
 C          4.0486525019        1.9514591843       -0.0646669289
 C          4.9030951104        1.7642415928       -1.1371945369
 C          4.3967666984        1.3182797479       -2.3495225592
 C          3.0431570490        1.0618454961       -2.4915547174
 C          2.1803809009        1.2429345155       -1.4198805294
 H          1.1266742347        1.0315747356       -1.5176795296
 H          2.6412353120        0.7159545459       -3.4302486980
 H          5.0597088758        1.1722413012       -3.1877434824
 H          5.9563362825        1.9667034392       -1.0275174150
 H          4.3965353354        2.3167794921        0.8879035571
 H          2.7367355096        0.8596703340        2.8919106257
 H          3.1362095473       -1.4103778402        3.4424937252
 H          2.6676208664       -3.7823291946        2.9623346816
 H          1.0534208538       -4.4017543194        1.2091315398
 H         -0.7663637079       -3.7220991233       -0.1823340554
 C          0.3409477825       -2.9042192242       -1.8073400818
 C          1.6808372568       -2.3218040639       -2.1293062720
 C          1.5316018226       -3.8028469891       -1.9680253174
 H          1.5863509557       -4.4277480593       -2.8465453021
 H          1.9463390078       -4.2522575730       -1.0792353597
 H          1.8240195241       -1.9157370768       -3.1181866867
 H          2.1926007423       -1.7694787541       -1.3560141606
 H         -0.3846627523       -2.9141465885       -2.6138658404
