  62
        -98.94284060
 C          0.7078760250        1.3962497656        0.5758613104
 C          1.1871138230        0.7420459137       -0.5812869349
 C          2.2276075877       -0.2828007675       -0.3710779805
 C          2.5624877875       -0.6320504589        0.8846419388
 C          3.5465396629       -1.6589517532        1.4073687964
 C          4.5623459703       -2.3084319283        0.4711409981
 C          5.6514321964       -1.3631943132       -0.0389353244
 H          6.3235549742       -1.1329456317        0.7916392369
 H          6.2328047194       -1.8878158850       -0.7999744862
 C          5.1639034289       -0.0343805349       -0.6121347874
 H          4.6340150175        0.5257429023        0.1610521002
 H          6.0442960346        0.5529878987       -0.8869487879
 C          4.2729213640       -0.1403828063       -1.8478366895
 H          4.1023186809        0.8734632549       -2.2198233470
 H          4.7931865089       -0.6994900831       -2.6279075318
 C          2.8996343089       -0.7911860599       -1.6138206914
 H          2.2444785052       -0.5166880372       -2.4452377826
 H          2.9825177348       -1.8732547937       -1.6020940953
 H          4.0558563573       -2.7930294778       -0.3581614797
 H          5.0552551415       -3.0978866472        1.0451280113
 H          4.0808565503       -1.1698784321        2.2284754092
 H          2.9397357550       -2.4462288840        1.8689435223
 O          1.9563324717       -0.0713943329        1.9752844741
 C          1.0732797971        0.9862826609        1.8554317170
 O          0.6875637559        1.4633834229        2.9430754500
 H         -1.7603871471        0.5033551154        1.1001439954
 C         -2.1774515146        1.0389414846        0.2588699000
 C         -1.5169889732        2.1574976707       -0.2349604756
 C         -2.0797519561        2.8469081568       -1.3010994038
 C         -3.2698006671        2.4166030841       -1.8616733059
 C         -3.9217137161        1.3001679145       -1.3723750027
 C         -3.3710225337        0.6095973074       -0.2978176059
 N         -4.0212156757       -0.5107799901        0.2395874540
 S         -3.1582832834       -1.7571787967        0.9227186787
 O         -4.0855065254       -2.8706345105        0.9170098418
 O         -2.6532836014       -1.3794320659        2.2194790504
 C         -1.8105409054       -2.1343063509       -0.1830991354
 C         -0.6076647475       -2.5339958035        0.3607656666
 C          0.4084262676       -2.9480997089       -0.4846427247
 C          0.2094902182       -2.9420004627       -1.8557907719
 C         -0.9970816836       -2.5186904715       -2.3886719840
 C         -2.0224507680       -2.1205872344       -1.5471474790
 H         -2.9742087991       -1.8030412954       -1.9402247055
 H         -1.1441072290       -2.5026241612       -3.4564035296
 H          0.9989542216       -3.2678773779       -2.5140741845
 H          1.3467793100       -3.2758054420       -0.0673026219
 H         -0.4895180026       -2.5087247658        1.4333633009
 H         -4.8304889052       -0.8340486085       -0.2690364152
 H         -4.8509350054        0.9667605161       -1.8082821902
 H         -3.6943634774        2.9576912876       -2.6933766962
 H         -1.5863523514        3.7193897364       -1.6956353197
 C         -0.2382298845        2.5754710068        0.4472353472
 H         -0.4921244420        2.8709105160        1.4764407604
 C          0.4671152326        3.7310149438       -0.2328584547
 C          0.0612595574        5.1425343444        0.0629911839
 C          1.3622977021        4.6118503873        0.5838256951
 H          2.2809201008        4.9673423303        0.1416404371
 H          1.4427495856        4.3938859424        1.6393416791
 H          0.0893658211        5.8670529814       -0.7367818013
 H         -0.7415885553        5.2941804536        0.7686440190
 H          0.7888545829        3.4888256129       -1.2390610504
 O          0.7845598552        1.0098022706       -1.7422533993
