  62
        -98.93327175
 C          1.7321377737        1.0396812755       -0.8835389857
 C          1.7631130667        0.2071743903        0.2605990271
 C          3.1007714340       -0.1574616625        0.7733934811
 C          4.2013841051        0.3265302862        0.1703466229
 C          5.6726703759        0.1611166083        0.4898560476
 C          6.1453685232       -0.9168780297        1.4615499286
 C          5.9608993276       -2.3504408558        0.9648558983
 H          6.6530431133       -2.5226938938        0.1368066131
 H          6.2351977336       -3.0302968687        1.7744061579
 C          4.5591566094       -2.7029121534        0.4736062481
 H          4.3127004852       -2.0948300506       -0.3990906017
 H          4.5722623332       -3.7458910599        0.1458477915
 C          3.4469869972       -2.5566143181        1.5105097336
 H          2.5379192767       -2.9889697190        1.0832929278
 H          3.6992159785       -3.1304315638        2.4044780262
 C          3.1181582238       -1.1135142547        1.9313340115
 H          2.1071990856       -1.1052401589        2.3508878158
 H          3.7941762884       -0.7641608224        2.7083722254
 H          5.6719348589       -0.7849325844        2.4300652037
 H          7.2166243791       -0.7544563483        1.6086226276
 H          6.1717737670        0.0173949626       -0.4737781248
 H          6.0050376159        1.1352280689        0.8655009218
 O          4.1184027172        1.1675669460       -0.9026073261
 C          2.9048207148        1.5428395954       -1.4494140014
 O          3.0018760839        2.3212954624       -2.4188633639
 H         -1.9707870953        0.4503427167       -0.5838899057
 C         -1.6974454672        1.3792244629       -0.1112575879
 C         -0.5103485699        2.0100069901       -0.4509545678
 C         -0.1663370061        3.1898376511        0.2043425427
 C         -0.9910302673        3.7289394961        1.1715071563
 C         -2.1784000986        3.1005554704        1.5023464551
 C         -2.5293412291        1.9186582965        0.8619055001
 N         -3.7542898309        1.2926327046        1.1535117537
 S         -3.7990432476       -0.3397762983        1.5405481893
 O         -5.0949791197       -0.5088271963        2.1686673126
 O         -2.6641315076       -0.7455066432        2.3339050737
 C         -3.8275578984       -1.1852859584       -0.0233425286
 C         -4.7440828795       -0.7773513068       -0.9730699331
 C         -4.8179100536       -1.4697740365       -2.1706440631
 C         -3.9887961876       -2.5597985445       -2.3910857111
 C         -3.0775800732       -2.9583136199       -1.4249864386
 C         -2.9918631630       -2.2638761734       -0.2275311079
 H         -2.2844363747       -2.5248110713        0.5435269514
 H         -2.4327492744       -3.8057605666       -1.5972313711
 H         -4.0508029674       -3.1016035989       -3.3218701948
 H         -5.5223006707       -1.1617469647       -2.9264559523
 H         -5.3764495460        0.0680243953       -0.7594130956
 H         -4.3269564802        1.8082720218        1.8077446906
 H         -2.8291184730        3.5194621145        2.2556295711
 H         -0.7100154564        4.6434530855        1.6720637570
 H          0.7635978510        3.6775330530       -0.0565532328
 C          0.4262267300        1.4921291399       -1.5144644189
 H          0.7068690410        2.3494693878       -2.1487662047
 C         -0.2138152846        0.4682897140       -2.4389284658
 C          0.6416552969       -0.4128542661       -3.2989248564
 C         -0.1633009473       -1.0060903837       -2.1839566357
 H         -1.0330944382       -1.5935261750       -2.4380170701
 H          0.3475585996       -1.3467228427       -1.2976285980
 H          0.3301084772       -0.5986189181       -4.3155410564
 H          1.7126570563       -0.3373886009       -3.1769903951
 H         -1.1212137345        0.8516786793       -2.8955686527
 O          0.7338512187       -0.2215199651        0.8420888224
