  62
        -98.93035923
 C         -2.3662984415        0.7797276541       -0.2623366931
 C         -3.6437845023        0.8807438574       -0.8646780142
 C         -4.8076429486        0.4584505582       -0.0615423116
 C         -4.5941807785       -0.0262534635        1.1755523695
 C         -5.6061530163       -0.5526742293        2.1581564960
 C         -6.1062826087       -1.9605143267        1.7960915944
 C         -6.4304902709       -2.1682698288        0.3189410274
 H         -6.6637283813       -3.2267929064        0.1761621417
 H         -5.5420566928       -1.9507259393       -0.2769612153
 C         -7.6095866040       -1.3551551430       -0.2101505251
 H         -8.5042490334       -1.6071539200        0.3636473570
 H         -7.7799184377       -1.6665961167       -1.2440001701
 C         -7.4351644892        0.1648872396       -0.1954623202
 H         -7.5747311513        0.5662032357        0.8046663132
 H         -8.2315585902        0.5893745146       -0.8137651283
 C         -6.1179984479        0.6610276046       -0.7836636566
 H         -6.1976625273        1.7419610287       -0.9526724689
 H         -5.9831799201        0.2248594347       -1.7801020443
 H         -6.9891608939       -2.1787486553        2.3992571146
 H         -5.3260658528       -2.6756599370        2.0682241239
 H         -6.4356357185        0.1424742377        2.2479654203
 H         -5.1056002122       -0.6009686997        3.1277252652
 O         -3.3424573158       -0.1433106398        1.7016133689
 C         -2.2030482326        0.2447718403        1.0158536594
 O         -1.1473449358        0.0635779916        1.6496650074
 O         -3.8140653123        1.3041546564       -2.0401582320
 C         -1.1657525561        1.2072050930       -1.0874450682
 C         -0.1041555299        0.1373816307       -1.0466980041
 C         -0.3765107404       -1.0926121388       -1.6396550824
 C          0.5573527247       -2.1102624859       -1.6200178047
 C          1.7843475886       -1.9246659478       -1.0079017408
 C          2.0666056305       -0.7027270435       -0.4138837639
 C          1.1295682501        0.3234592895       -0.4450067984
 H          1.3547250841        1.2617777811        0.0376775419
 N          3.3022469668       -0.5155737558        0.2302687285
 S          4.6811846560       -1.0882743044       -0.5570608297
 O          4.6345074680       -0.7326166157       -1.9581640899
 O          4.8246151038       -2.4942067236       -0.2718990322
 C          5.9606835732       -0.1688457755        0.2754502038
 C          6.4469113960       -0.6420066979        1.4793524736
 C          7.4237299332        0.0867300363        2.1391301316
 C          7.8943634550        1.2694255050        1.5881731446
 C          7.3972473293        1.7309912419        0.3785915077
 C          6.4194907571        1.0077505655       -0.2860824036
 H          6.0115889851        1.3230448882       -1.2331200801
 H          7.7674627075        2.6490574412       -0.0485420087
 H          8.6556940514        1.8336746782        2.1032320465
 H          7.8147358645       -0.2696312871        3.0784438842
 H          6.0577295013       -1.5699644197        1.8646033237
 H          3.4254856371        0.4333420561        0.5551884729
 H          2.5244098313       -2.7085524573       -0.9841525642
 H          0.3303741815       -3.0589693982       -2.0835727860
 H         -1.3379292507       -1.2423012348       -2.1128459668
 H         -1.5522193281        1.2570846866       -2.1193009800
 C         -0.6393763022        2.5963443989       -0.7604454808
 C         -1.5650463853        3.6735808197       -0.2820191752
 C         -0.5270650641        3.1137451452        0.6413822252
 H          0.3212456175        3.7350238252        0.8902520920
 H         -0.8428896966        2.4647116378        1.4427325218
 H         -1.4309414963        4.6741440490       -0.6646563264
 H         -2.5976194071        3.4045637612       -0.1135941237
 H          0.1363744965        2.9038217892       -1.4558045332
