  62
        -98.93242903
 C          2.3487730465       -0.5165154038        0.3609461404
 C          3.5474663199       -1.0671323186       -0.1527291341
 C          4.6215121678       -0.1119215094       -0.4615106710
 C          4.4013754246        1.2023106100       -0.2745879314
 C          5.4145044449        2.2931118051       -0.4766820513
 C          6.3951396898        2.3286227726        0.7129062073
 C          7.8368675544        1.9697781290        0.3524663288
 H          8.2957595999        2.8172036183       -0.1611571281
 H          8.3797316241        1.8182873735        1.2878716758
 C          8.0154025698        0.7331072429       -0.5335534177
 H          9.0702419771        0.4550130776       -0.4822695909
 H          7.8132700257        0.9940833248       -1.5734514468
 C          7.1656691144       -0.4884435984       -0.1600568162
 H          6.8858283483       -0.4553721646        0.8930657987
 H          7.7770134431       -1.3825188705       -0.2984639140
 C          5.9001712675       -0.6752370212       -1.0177838679
 H          6.0735677403       -0.2687663072       -2.0181773900
 H          5.7083310069       -1.7466606190       -1.1285917017
 H          6.0284706195        1.6422869805        1.4789887334
 H          6.3919587176        3.3251611237        1.1569546188
 H          4.8681423600        3.2338226672       -0.5473839613
 H          5.9493114931        2.1297624918       -1.4096973954
 O          3.2289152021        1.6946504974        0.2017120926
 C          2.1729321814        0.8566731106        0.5294509930
 O          1.1642513020        1.4500031559        0.9544831923
 O          3.7104593294       -2.3022827893       -0.3468895948
 C          1.1985568585       -1.4551987501        0.6849442129
 C          0.0682112952       -1.1720623179       -0.2737445096
 C          0.2492708253       -1.4812146282       -1.6198715023
 C         -0.7386626282       -1.2094528620       -2.5459909564
 C         -1.9254909386       -0.6146860533       -2.1534013525
 C         -2.1160840984       -0.3018785939       -0.8148635281
 C         -1.1275745764       -0.5941042612        0.1188055384
 H         -1.2871295452       -0.3405285418        1.1549421908
 N         -3.3028985266        0.3333231357       -0.4084927921
 S         -4.7618256622       -0.2091797571       -1.0582799293
 O         -4.8481434907       -1.6496027020       -0.9585104037
 O         -4.9069874344        0.3366231521       -2.3847013994
 C         -5.9278915390        0.5661111590        0.0428193697
 C         -6.4943049923       -0.1701310329        1.0657583363
 C         -7.3820795410        0.4541460650        1.9280783300
 C         -7.6835136834        1.7966151884        1.7553922436
 C         -7.1062781339        2.5224678214        0.7237910783
 C         -6.2191889041        1.9043406856       -0.1427599894
 H         -5.7531918588        2.4254671071       -0.9626992724
 H         -7.3448857698        3.5655231643        0.5920114049
 H         -8.3745912910        2.2801677806        2.4276450244
 H         -7.8349729971       -0.1077065640        2.7290478658
 H         -6.2367056807       -1.2131489854        1.1571408992
 H         -3.3594615772        0.4275014932        0.5962003539
 H         -2.7036891865       -0.3932574734       -2.8657966844
 H         -0.5853703947       -1.4580289104       -3.5857027212
 H          1.1809980789       -1.9352733025       -1.9290327181
 H          1.5783131113       -2.4643527971        0.4719685493
 C          0.8121217839       -1.3777045597        2.1459814585
 C          0.0140769394       -2.4876013307        2.7606589164
 C          1.4581003119       -2.3138108804        3.1211357838
 H          1.7036152252       -1.9432058731        4.1050525334
 H          2.1726108778       -3.0241374739        2.7317757193
 H         -0.7320409127       -2.2398863402        3.5003357404
 H         -0.2549215128       -3.3179018270        2.1252150314
 H          0.6231798053       -0.3647220127        2.4814286222
