  62
        -98.94591776
 C          1.2978871328        1.4209068550        0.6196537217
 C          2.3750902271        1.3119048794       -0.2944283109
 C          3.3711013710        0.2708998193        0.0073697873
 C          3.2166444209       -0.5035341303        1.0954812526
 C          4.1338910651       -1.6239651926        1.4915931373
 C          3.6935315529       -2.9646168147        0.8863240937
 C          3.3841720829       -2.8985737147       -0.6090941327
 H          3.1089841113       -3.9062797826       -0.9273688408
 H          2.5143317663       -2.2574661998       -0.7685591097
 C          4.5471703198       -2.3943887886       -1.4746051168
 H          4.6352372649       -3.0377302901       -2.3525297079
 H          5.4836839396       -2.4730671579       -0.9210762065
 C          4.3810031966       -0.9627302333       -1.9866743160
 H          5.1376010145       -0.7871852819       -2.7560348503
 H          3.4017999016       -0.8525638578       -2.4591546315
 C          4.5354808582        0.1421496074       -0.9342178615
 H          5.4643922238       -0.0049845060       -0.3793363419
 H          4.5992093524        1.0976385536       -1.4628083757
 H          2.7976835423       -3.3062168480        1.4100843927
 H          4.4841611666       -3.6960401005        1.0637467776
 H          5.1449813125       -1.3845814283        1.1671388919
 H          4.1235872851       -1.7058576560        2.5800232292
 O          2.1711731805       -0.3688896294        1.9520927553
 C          1.1968338820        0.5915439322        1.7397616852
 O          0.3037853106        0.6095682189        2.6117859591
 H         -2.2151927701        1.2669633424        0.8319227862
 C         -1.9782044299        1.3584909830       -0.2175427493
 C         -0.7872448766        1.9547992328       -0.6096847783
 C         -0.5104241698        2.0657003447       -1.9684484408
 C         -1.4105264724        1.5919366300       -2.9052148406
 C         -2.5922612094        0.9895172610       -2.5108884073
 C         -2.8762088807        0.8687371463       -1.1558732351
 N         -4.0708806625        0.2677810073       -0.7255686817
 S         -4.0428632707       -0.8025815543        0.5603688883
 O         -5.2698625993       -1.5571266118        0.4199943108
 O         -3.8810363023       -0.0864986188        1.7988510040
 C         -2.6452588146       -1.8608559352        0.2366036727
 C         -1.4606792871       -1.6849613649        0.9203476458
 C         -0.3797967903       -2.4916252597        0.5995173932
 C         -0.4978948402       -3.4520311869       -0.3918169430
 C         -1.6984816274       -3.6200481919       -1.0659499087
 C         -2.7816079914       -2.8164346017       -0.7527327557
 H         -3.7351126990       -2.9249564598       -1.2438571634
 H         -1.7897223970       -4.3717790146       -1.8332395040
 H          0.3495715989       -4.0730066168       -0.6361044569
 H          0.5485568443       -2.3523273809        1.1311846749
 H         -1.3842968975       -0.9311355233        1.6885979763
 H         -4.6524127082       -0.0821727557       -1.4734514295
 H         -3.2921649896        0.6180574611       -3.2437587105
 H         -1.1857022420        1.6859596359       -3.9567682561
 H          0.4239464111        2.5022966558       -2.2824212275
 C          0.1770231102        2.4362164232        0.4486467447
 H         -0.3621757270        2.4454379312        1.4058771938
 C          0.6829362903        3.8384342435        0.1746066526
 C         -0.2413314946        4.9958387509        0.3979129429
 C          0.9140542453        4.7688257355        1.3252044435
 H          1.7543065441        5.4454277990        1.2800979561
 H          0.7058063734        4.3985882665        2.3189910192
 H         -1.2340658487        4.7783454445        0.7635024842
 H         -0.1969956787        5.8308482662       -0.2842003173
 H          1.3759176783        3.8979588669       -0.6535572704
 O          2.5246681870        2.0400077198       -1.3093150516
