  62
        -98.94602015
 C         -1.4694487043       -1.0742766420        0.0971189843
 C         -2.4064903008       -0.7274107977        1.0972859859
 C         -3.0355509479        0.5933628154        0.9561916133
 C         -2.6605068274        1.3954439716       -0.0572405218
 C         -3.2495261818        2.7465887923       -0.3406660724
 C         -4.4355497406        2.6421775598       -1.3096175426
 C         -5.4623558056        1.5803177794       -0.9160751054
 H         -6.2684332752        1.6189937293       -1.6518906713
 H         -5.0027501164        0.5924425717       -0.9947105214
 C         -6.0483446816        1.7543475651        0.4920710439
 H         -7.1296560993        1.6099633006        0.4418534103
 H         -5.8744656052        2.7721547391        0.8434889541
 C         -5.5154908549        0.7628212701        1.5282254245
 H         -5.6040705737       -0.2552014022        1.1403002355
 H         -6.1468333441        0.8290633944        2.4184140547
 C         -4.0657051484        0.9823669352        1.9788931095
 H         -3.9306491810        2.0203810385        2.2906091488
 H         -3.8861818324        0.3386808332        2.8454255756
 H         -4.9218214974        3.6177682629       -1.3660567328
 H         -4.0518165821        2.3953188462       -2.3020582162
 H         -3.5704283118        3.2016560993        0.5944505480
 H         -2.4787386409        3.3741639373       -0.7912055939
 O         -1.7244543265        1.0441028649       -0.9750734972
 C         -1.1176837432       -0.2048845759       -0.9367242838
 O         -0.2999085076       -0.4090612911       -1.8498213762
 O         -2.6961167755       -1.4804621544        2.0672193585
 C         -0.7733598490       -2.4213092532        0.1664804452
 C          0.7213656224       -2.2203801676        0.2178591590
 C          1.6206376875       -2.9505402129       -0.5473329373
 C          2.9784245838       -2.6870984573       -0.4780101759
 C          3.4683937185       -1.6945608355        0.3498322500
 C          2.5775408083       -0.9663610807        1.1280792828
 C          1.2210944288       -1.2387434336        1.0652398066
 H          0.5314652724       -0.6650417945        1.6727708263
 N          3.0629177626        0.0629993882        1.9596592223
 S          4.0090127336        1.2265110995        1.2079837837
 O          5.3546901677        0.7269578625        1.0747066191
 O          3.8561775154        2.4179456845        2.0139797751
 C          3.2836115201        1.4591528417       -0.4038398857
 C          3.9562449746        1.0313250123       -1.5294266245
 C          3.3533356128        1.1868665573       -2.7671467617
 C          2.0958021244        1.7613981599       -2.8562189469
 C          1.4337234754        2.1882117718       -1.7159998984
 C          2.0298422881        2.0329926115       -0.4762962973
 H          1.5409998926        2.3540702653        0.4308776980
 H          0.4483770516        2.6197548256       -1.7888951045
 H          1.6203021614        1.8716201197       -3.8177037604
 H          3.8624987129        0.8533684037       -3.6570525697
 H          4.9327716388        0.5898157887       -1.4153872396
 H          2.3387147458        0.5076458099        2.5055809188
 H          4.5202999694       -1.4659508822        0.4057102287
 H          3.6642615231       -3.2588125622       -1.0841363313
 H          1.2585599915       -3.7205779894       -1.2082587208
 H         -1.0960779853       -2.8732253440        1.1164179788
 C         -1.2261149159       -3.3083922495       -0.9743552423
 C         -1.2606161002       -4.7976594525       -0.8100079947
 C         -2.5400276419       -4.0192786906       -0.8588051113
 H         -3.1626190323       -4.1003165501       -1.7372241456
 H         -3.0956900772       -3.8872585972        0.0583365550
 H         -1.0071487416       -5.4163615085       -1.6576053598
 H         -0.9515457110       -5.2039429957        0.1411816660
 H         -0.9593897538       -2.9040714776       -1.9443485030
