  62
        -98.94850456
 C          1.2438012850        1.5182364139        0.4983635452
 C          2.1596031460        1.1794934137       -0.5265961858
 C          3.1988288718        0.2074228422       -0.1598131179
 C          3.2289914101       -0.2898766819        1.0897332869
 C          4.2078137806       -1.3153717321        1.5822124402
 C          3.6573016281       -2.7386793660        1.4200042927
 C          3.0949380954       -3.0361630632        0.0294800744
 H          2.7867754683       -4.0846122679        0.0248068287
 H          2.1859431891       -2.4487167880       -0.1255585381
 C          4.0782019806       -2.7887504212       -1.1232094196
 H          5.0995602659       -2.7706043251       -0.7401387389
 H          4.0081190669       -3.6249342817       -1.8222850601
 C          3.8144066398       -1.5147821241       -1.9284322554
 H          4.4019522475       -1.5674827450       -2.8491703166
 H          2.7592878814       -1.4777812999       -2.2135805871
 C          4.1720614042       -0.1964564679       -1.2303400654
 H          5.1877024879       -0.2523435088       -0.8333507666
 H          4.1376902030        0.5980032948       -1.9816622176
 H          4.4576805467       -3.4453499607        1.6491715298
 H          2.8535291349       -2.8866328420        2.1451957990
 H          5.1412701354       -1.2114073769        1.0324371552
 H          4.3970869521       -1.1288558237        2.6410088787
 O          2.3365010771        0.0640167745        2.0491773191
 C          1.3023427819        0.9418794867        1.7660054830
 O          0.5120059665        1.1297489303        2.7147155640
 O          2.1115959120        1.6603186003       -1.6891324400
 C          0.0924431897        2.4598971753        0.2010619571
 C         -0.7916358640        1.8834056245       -0.8804142967
 C         -1.4735004343        2.6644585458       -1.8056850800
 C         -2.2888989261        2.0707708971       -2.7539685929
 C         -2.4590666862        0.6982462128       -2.7918993915
 C         -1.7838147200       -0.0908102872       -1.8679977191
 C         -0.9622632136        0.5077021311       -0.9275301576
 H         -0.4221537292       -0.1182219891       -0.2351206956
 N         -1.9108676912       -1.4876429003       -1.8638242029
 S         -1.8653234318       -2.3221048534       -0.4162031274
 O         -0.5239127170       -2.3570592077        0.1088769827
 O         -2.4524146659       -3.6071235735       -0.7319093375
 C         -2.9598890068       -1.4128832811        0.6598956808
 C         -4.3117009993       -1.4735444850        0.3769718004
 C         -5.1960215234       -0.7415542873        1.1507806809
 C         -4.7159792809        0.0434836539        2.1887848569
 C         -3.3588252230        0.0896038813        2.4639966930
 C         -2.4687537033       -0.6448657404        1.6950475415
 H         -1.4088646133       -0.6179013253        1.8958367627
 H         -2.9737442049        0.6962728740        3.2683516819
 H         -5.4018879319        0.6204699124        2.7887839083
 H         -6.2529039844       -0.7814544976        0.9421453596
 H         -4.6454602142       -2.1046545144       -0.4306150333
 H         -2.5996607660       -1.8611600348       -2.4994293606
 H         -3.0955060503        0.2399817795       -3.5329828198
 H         -2.8055664533        2.6877766878       -3.4732310156
 H         -1.3593249200        3.7360114995       -1.7893729321
 H         -0.5035747438        2.5127276467        1.1251516440
 C          0.6068705439        3.8472550757       -0.1259504007
 C         -0.1811245988        5.0608366185        0.2636510169
 C          1.0823503715        4.7218506082        0.9940181973
 H          1.9558118774        5.3359209759        0.8344630910
 H          1.0054609110        4.3258871169        1.9965570240
 H         -0.1735373582        5.9141023365       -0.3977927870
 H         -1.1172848098        4.9073803790        0.7789396851
 H          1.1665544049        3.8731058166       -1.0535737579
