  62
        -98.94690592
 C         -1.2830544670       -0.7275608929        0.6122237446
 C         -2.1756885257       -0.7301255233       -0.4861722087
 C         -2.9287532996        0.5124405550       -0.6983853835
 C         -2.6844883823        1.5854089511        0.0747233128
 C         -3.3449594979        2.9322941979       -0.0440879246
 C         -4.6990950108        3.0315036523        0.6721320676
 C         -5.8489610659        2.2829933375       -0.0031810378
 H         -6.7718431247        2.6136568733        0.4773942321
 H         -5.9044187296        2.5764961552       -1.0518898363
 C         -5.7576033249        0.7543040160        0.1017366008
 H         -6.7305094519        0.3504083718        0.3903274264
 H         -5.0515431977        0.4852544616        0.8905684821
 C         -5.3420176677        0.0542804051       -1.1921652459
 H         -5.2742054538       -1.0185272419       -0.9951326299
 H         -6.1079214013        0.2090996292       -1.9552695963
 C         -3.9917629289        0.5176390400       -1.7553064550
 H         -3.6846099077       -0.1826199022       -2.5362141344
 H         -4.0866654418        1.5103048000       -2.1955387575
 H         -4.5793624351        2.6692255493        1.6957161269
 H         -4.9629036677        4.0904332581        0.7227002639
 H         -3.4673132523        3.1868006349       -1.0974809477
 H         -2.6599242293        3.6537957346        0.4069723895
 O         -1.7623799215        1.5714346932        1.0731408257
 C         -1.0497282351        0.4209546656        1.3682980631
 O         -0.2459661832        0.5477620796        2.3155695953
 O         -2.3436093099       -1.7147018966       -1.2526095823
 C         -0.4570011073       -1.9636113123        0.9335123907
 C          0.4960227830       -2.1974575283       -0.2141696112
 C          0.5292384216       -3.3498294955       -0.9856503674
 C          1.3892977293       -3.4335583470       -2.0683394595
 C          2.2205055199       -2.3809205902       -2.4022080471
 C          2.2077225697       -1.2278022443       -1.6216327762
 C          1.3643042874       -1.1581446749       -0.5268286784
 H          1.3388605491       -0.2617200328        0.0718905747
 N          3.0572667259       -0.1578241355       -1.9172260612
 S          2.8775259189        1.3819663601       -1.3033218201
 O          1.4931197727        1.7806046520       -1.1962347904
 O          3.7035345033        2.1935911894       -2.1734799551
 C          3.6622791485        1.2764684253        0.2915665345
 C          2.9423047360        1.4327459545        1.4576977723
 C          3.6037861002        1.3223321407        2.6719012035
 C          4.9647016588        1.0636178122        2.6995351577
 C          5.6762120631        0.9155247233        1.5177991007
 C          5.0210099297        1.0215937502        0.3028713045
 H          5.5359732390        0.9222680626       -0.6381234895
 H          6.7353535525        0.7159663718        1.5419022807
 H          5.4721219010        0.9776856511        3.6474705510
 H          3.0407799910        1.4336018239        3.5849217587
 H          1.8801116532        1.6228983589        1.4174876843
 H          3.5270311057       -0.1895805892       -2.8081299592
 H          2.8718455381       -2.4430367136       -3.2603638840
 H          1.4009788814       -4.3292070614       -2.6709414566
 H         -0.1284735810       -4.1714960657       -0.7556912707
 H          0.1376544260       -1.7088340485        1.8225574151
 C         -1.3426196699       -3.1466555853        1.2565858766
 C         -0.8070742891       -4.2727328327        2.0872323994
 C         -1.8211482100       -3.3322835858        2.6640323475
 H         -2.8274368297       -3.6898075309        2.8230312820
 H         -1.4932567039       -2.6122585654        3.3999421602
 H         -1.1179090467       -5.2796129902        1.8536057136
 H          0.2115621294       -4.1944455531        2.4356394220
 H         -2.0370876101       -3.3817700096        0.4590953297
