  62
        -98.94964408
 C         -1.6904721471       -1.2137299776        0.3390949815
 C         -1.3283779933       -0.1555291719       -0.5266321981
 C         -1.8707321735        1.1631075777       -0.1877710712
 C         -2.6209781293        1.3109688524        0.9187822490
 C         -3.2148502223        2.5996919464        1.4194776342
 C         -4.5459276456        2.9782234345        0.7549377060
 C         -4.4388500194        3.4623968391       -0.6916637555
 H         -3.6962719489        4.2586379767       -0.7514135203
 H         -5.4053052959        3.8965324238       -0.9552962746
 C         -4.0990446455        2.3606663678       -1.7049503562
 H         -4.7575818908        2.4481479950       -2.5719259433
 H         -4.2876420371        1.3830536630       -1.2555392595
 C         -2.6608331799        2.3976100487       -2.2214628995
 H         -2.4971707299        3.3187662422       -2.7848028282
 H         -2.5198860177        1.5547293063       -2.9023750183
 C         -1.5943638124        2.3017537162       -1.1223088701
 H         -1.5337777580        3.2387180564       -0.5685508797
 H         -0.6257428541        2.1168663714       -1.5933490645
 H         -4.9900488460        3.7783184923        1.3516835768
 H         -5.2160500756        2.1167593858        0.8030663514
 H         -2.4934086865        3.4070234928        1.2878193088
 H         -3.3884815353        2.4650546654        2.4895637732
 O         -2.9194140609        0.2741899895        1.7471157030
 C         -2.4642277976       -1.0067116596        1.4788726521
 O         -2.8095312493       -1.8637690700        2.3199863736
 O         -0.5829699309       -0.3053619918       -1.5308146060
 C         -1.1604254298       -2.6113553394        0.0755372199
 C          0.3456687134       -2.5729464601       -0.0253563253
 C          1.0683735069       -3.3009025256       -0.9625653169
 C          2.4480984207       -3.2010893081       -1.0167554300
 C          3.1322736067       -2.3604795872       -0.1577550707
 C          2.4186088668       -1.6378144082        0.7911756840
 C          1.0427278101       -1.7724998896        0.8707545162
 H          0.5041463366       -1.2058812230        1.6167744003
 N          3.0615531426       -0.7516829708        1.6814573308
 S          2.6623872191        0.8730590031        1.5673124378
 O          3.5037009958        1.5319483643        2.5440944456
 O          1.2418255782        1.0484570185        1.7260669921
 C          3.1883715210        1.3449675980       -0.0714365879
 C          4.4048162281        1.9854002225       -0.2146709964
 C          4.8531048648        2.3011673049       -1.4866965108
 C          4.0850667770        1.9630920238       -2.5909650880
 C          2.8698426353        1.3162062749       -2.4297564134
 C          2.4119099127        0.9997653644       -1.1593695325
 H          1.4663652874        0.4995211667       -1.0153261171
 H          2.2659994725        1.0487132607       -3.2821838051
 H          4.4336995393        2.2053806567       -3.5825124909
 H          5.7974131251        2.8058759365       -1.6126123991
 H          4.9647735966        2.2302915870        0.6734953986
 H          4.0689562884       -0.8408104903        1.6847361923
 H          4.2056022625       -2.2609463879       -0.2182512686
 H          2.9958819176       -3.7711235938       -1.7514269367
 H          0.5495873170       -3.9419077038       -1.6565423705
 H         -1.4342647490       -3.2145212643        0.9539867119
 C         -1.8281543661       -3.2000245544       -1.1510557468
 C         -2.0680767355       -4.6758131014       -1.2512559390
 C         -3.2185126635       -3.7432616221       -1.0232168783
 H         -3.9159873263       -3.5731890129       -1.8296358613
 H         -3.6707881580       -3.7139096773       -0.0421845994
 H         -1.9800140694       -5.1487077826       -2.2177764369
 H         -1.7472724435       -5.2925278577       -0.4253208632
 H         -1.5849006115       -2.6557478278       -2.0564606819
