  62
        -98.94529571
 C          2.1407370489        0.8816775022        0.0772614059
 C          2.8792707078        0.2457246618        1.1027100183
 C          3.6070802147       -0.9692046153        0.7128174637
 C          3.4975421733       -1.4240724582       -0.5490205000
 C          4.2200456510       -2.6216497680       -1.0932901399
 C          5.5685874642       -2.2241622648       -1.7099735850
 C          6.4218965364       -1.3334385030       -0.8069330664
 H          7.3604121554       -1.1430852371       -1.3318545099
 H          5.9220234833       -0.3701819881       -0.6822304226
 C          6.7208890747       -1.9315007945        0.5748694224
 H          7.7783992849       -1.7796924386        0.8006729560
 H          6.5444375244       -3.0076045141        0.5588452771
 C          5.9265998949       -1.3050278079        1.7223936030
 H          6.0257007900       -0.2173074206        1.6852057608
 H          6.3669302912       -1.6420376389        2.6645521571
 C          4.4328818881       -1.6512390340        1.7674218497
 H          4.3040241800       -2.7345429039        1.7175685125
 H          4.0397518604       -1.3024138712        2.7270167046
 H          6.1188120901       -3.1354050932       -1.9514121136
 H          5.3771930365       -1.6856296010       -2.6409848682
 H          4.3729652354       -3.3426699924       -0.2924167804
 H          3.5964289609       -3.0768514064       -1.8648041697
 O          2.7416545079       -0.8110635748       -1.4959353546
 C          2.0527611741        0.3603749657       -1.2138890715
 O          1.4131183400        0.8250365729       -2.1757085177
 H         -0.0885011540        0.0969320087        1.2096530967
 C         -0.6939607794        0.8042210573        0.6550108752
 C         -0.0959750585        1.9521525716        0.1488477696
 C         -0.8840739265        2.8490400767       -0.5595715906
 C         -2.2281235001        2.5891422000       -0.7661685808
 C         -2.8159542952        1.4415933735       -0.2676529164
 C         -2.0382760998        0.5399178936        0.4474502818
 N         -2.6284835493       -0.6252270960        0.9712104129
 S         -3.5102941822       -1.5973294202       -0.0790344610
 O         -3.4593335334       -2.9210172694        0.5041843733
 O         -3.0430788266       -1.4756720765       -1.4404773408
 C         -5.1701582210       -0.9674630144        0.0605609177
 C         -5.7497274080       -0.9326125310        1.3138526529
 C         -7.0417119208       -0.4479600617        1.4399919163
 C         -7.7293560280       -0.0117360651        0.3171476231
 C         -7.1348230936       -0.0567528031       -0.9345708809
 C         -5.8420819295       -0.5396823347       -1.0676514545
 H         -5.3365699257       -0.5886561215       -2.0191448972
 H         -7.6707133087        0.2822906881       -1.8065213280
 H         -8.7347037057        0.3655710898        0.4180475134
 H         -7.5072568967       -0.4115705360        2.4116739465
 H         -5.1822016203       -1.2848072847        2.1589100807
 H         -1.9888566933       -1.1893765694        1.5125000453
 H         -3.8602698132        1.2330108164       -0.4326834818
 H         -2.8265855562        3.2913582127       -1.3261376272
 H         -0.4444148132        3.7469662681       -0.9611583233
 C          1.3783855255        2.1542791699        0.3995600133
 H          1.5224001415        2.3156499659        1.4785672319
 C          1.9685947170        3.3290818861       -0.3514726159
 C          1.8771717045        4.7125972207        0.2175297068
 C          3.1929022206        3.9961842242        0.1975667362
 H          3.9534837747        4.3277004896       -0.4933848895
 H          3.5860648856        3.6187815224        1.1304039101
 H          1.3792659628        4.8296795030        1.1680186655
 H          1.7362467479        5.5404696603       -0.4607169627
 H          1.9037321148        3.2087546091       -1.4271930138
 O          2.9213794663        0.6699394893        2.2897517574
