  62
        -98.94040359
 C         -2.6349982958       -1.3092594383       -0.1770046658
 C         -2.3935285893       -0.1282759042       -0.9192052635
 C         -3.5483398589        0.7657869583       -1.0898643162
 C         -4.7372761898        0.4173278096       -0.5649957578
 C         -5.9789473011        1.2585528732       -0.6175629072
 C         -6.0837454128        2.1684654412        0.6142955276
 C         -4.8049621410        2.9505865357        0.9149389355
 H         -5.0056570353        3.5809781383        1.7840097381
 H         -4.0157920574        2.2515026651        1.2023099517
 C         -4.3075324202        3.8237057745       -0.2454942252
 H         -4.0264859217        4.8025152169        0.1488267488
 H         -5.1142797146        3.9822569606       -0.9620693548
 C         -3.0823176955        3.2711141263       -0.9765342808
 H         -2.3014070333        3.0245267520       -0.2517374319
 H         -2.6882338302        4.0601448166       -1.6228303154
 C         -3.3290980320        2.0393185104       -1.8568850437
 H         -4.1640197661        2.2319624948       -2.5336548280
 H         -2.4290099456        1.8761976285       -2.4568331179
 H         -6.9099136438        2.8648433535        0.4602623929
 H         -6.3179903948        1.5493916696        1.4833590796
 H         -5.9677590089        1.8581287708       -1.5255064344
 H         -6.8439810504        0.5937548571       -0.6415396126
 O         -4.9334352640       -0.7343767135        0.1263180151
 C         -3.8886875955       -1.6142227657        0.3537608062
 O         -4.1970951494       -2.6168638073        1.0291153668
 H          1.1401204523       -1.8135832245       -0.5712728313
 C          0.8684622036       -1.4167408990        0.3940854224
 C         -0.4210515131       -1.5812857405        0.8697256691
 C         -0.7457506308       -1.0453475366        2.1138831105
 C          0.1969289209       -0.3617523770        2.8563225141
 C          1.4854761361       -0.1976030147        2.3769783190
 C          1.8186799971       -0.7247139693        1.1377678912
 N          3.1298347107       -0.5881079203        0.6459515479
 S          3.9253650463        0.8815464224        0.8902416185
 O          4.4211786307        0.9105873558        2.2441727082
 O          3.0781809452        1.9881062957        0.5056604359
 C          5.2877568180        0.7082333685       -0.2450892461
 C          5.1630190567        1.2051694156       -1.5286603174
 C          6.2154319612        1.0410929074       -2.4156243233
 C          7.3664827722        0.3840280429       -2.0071383430
 C          7.4766458580       -0.1089807534       -0.7154231203
 C          6.4288128572        0.0527459383        0.1769090967
 H          6.4718803853       -0.3049885363        1.1922550732
 H          8.3740811796       -0.6170695409       -0.4014334638
 H          8.1833237152        0.2578712131       -2.7001006078
 H          6.1334002364        1.4257545813       -3.4195116308
 H          4.2531457767        1.7165470243       -1.8008083430
 H          3.1990999457       -0.8735225735       -0.3216750629
 H          2.2276122189        0.3433592883        2.9414237385
 H         -0.0710320180        0.0519339231        3.8173713344
 H         -1.7548434666       -1.1666218844        2.4855498080
 C         -1.5036175930       -2.2875277290        0.0896422647
 H         -1.9269193443       -3.0722539332        0.7324248188
 C         -1.0294976095       -2.9191577636       -1.2017154034
 C         -0.3147140248       -4.2358622350       -1.1713248449
 C         -1.7155497730       -4.1551323634       -1.6973453498
 H         -1.8764092279       -4.2640931226       -2.7593994085
 H         -2.5162131380       -4.5548290367       -1.0921670941
 H         -0.1611157999       -4.6969419122       -0.2074842067
 H          0.4863587495       -4.4059874661       -1.8746428177
 H         -0.7284499079       -2.1869975964       -1.9419028312
 O         -1.2757914532        0.1657761246       -1.4193525066
