  62
        -98.94795329
 C          1.2524693310        0.7872011424        0.3843263963
 C          2.0883253229        0.5885258710       -0.7402390528
 C          3.0500913014       -0.5180152983       -0.6335131329
 C          3.0388713081       -1.2999439838        0.4613557292
 C          3.9918967665       -2.4308014286        0.7172141061
 C          5.2341630738       -1.9505849160        1.4808457502
 C          5.8846855946       -0.7046422670        0.8796440799
 H          5.1976425807        0.1386254647        0.9795874171
 H          6.7661010786       -0.4754493152        1.4822882057
 C          6.2951741935       -0.8507640285       -0.5922314758
 H          6.3413232717       -1.9067914609       -0.8607081803
 H          7.2989868288       -0.4397816886       -0.7184231360
 C          5.3858522885       -0.1169363987       -1.5796708505
 H          5.2618295183        0.9211146686       -1.2614063198
 H          5.8819644648       -0.1040687558       -2.5537094190
 C          3.9932250525       -0.7267387013       -1.7848216325
 H          3.5320762176       -0.2257537553       -2.6413108950
 H          4.0859797781       -1.7892777146       -2.0198937636
 H          5.9590603970       -2.7662266649        1.5067216244
 H          4.9416457577       -1.7230589828        2.5085371304
 H          3.4757265738       -3.1858292060        1.3130844378
 H          4.2841035134       -2.8734231415       -0.2332372386
 O          2.1756358090       -1.1183674719        1.4932616251
 C          1.2619672034       -0.0778036329        1.4780332112
 O          0.5196301625       -0.0286233671        2.4810853894
 H         -0.8441256338       -0.4161501502       -0.3189243958
 C         -1.2603961812        0.3936558086       -0.8980301542
 C         -0.7915309841        1.6854848292       -0.7047138007
 C         -1.3197448409        2.7046820035       -1.4870571693
 C         -2.2822556006        2.4238744412       -2.4417761046
 C         -2.7593623173        1.1373863755       -2.6173673259
 C         -2.2413174476        0.1122727386       -1.8343134233
 N         -2.6974634777       -1.2090736186       -1.9601702743
 S         -2.8420684744       -2.1484344184       -0.5825444478
 O         -1.5472913179       -2.6094450199       -0.1467719279
 O         -3.7830747707       -3.1832574070       -0.9575915841
 C         -3.5906779231       -1.0669557022        0.6236114199
 C         -2.8682046570       -0.5747051804        1.6907274498
 C         -3.4863681669        0.3076239033        2.5641839941
 C         -4.8050850957        0.6800390084        2.3593589841
 C         -5.5207543373        0.1688759481        1.2868102540
 C         -4.9088859777       -0.7098046153        0.4092221265
 H         -5.4337819932       -1.1382557512       -0.4291047123
 H         -6.5485314223        0.4547960588        1.1320359703
 H         -5.2768726049        1.3698660585        3.0411709182
 H         -2.9213055212        0.6987119462        3.3954792770
 H         -1.8399076025       -0.8695791836        1.8341322236
 H         -3.4798855330       -1.3338634518       -2.5855313826
 H         -3.5162707496        0.9242511167       -3.3562382865
 H         -2.6757407752        3.2223648917       -3.0520826683
 H         -0.9726145105        3.7162323441       -1.3551948153
 C          0.2326187422        1.9106207500        0.3823867226
 H         -0.2935527617        1.8418524404        1.3468462601
 C          0.9197841887        3.2576436029        0.2975682542
 C          0.3099895921        4.4592261531        0.9529483327
 C          1.5387079759        3.8306426342        1.5360846608
 H          2.4799185081        4.3523607992        1.4488084762
 H          1.4401925020        3.2600707154        2.4485589755
 H         -0.6237076592        4.3236201988        1.4774160560
 H          0.4101270575        5.4179204409        0.4667844689
 H          1.4511792300        3.3947849353       -0.6368290142
 O          2.0370880449        1.2969637338       -1.7797391721
