  62
        -98.93879286
 C         -1.8975020496       -0.2046276701       -0.0864783290
 C         -2.9444144681       -1.0702808455        0.3029291921
 C         -4.2665917903       -0.4583462857        0.5374877658
 C         -4.3960109060        0.8736271802        0.3919345920
 C         -5.6410969427        1.7076901915        0.5355131592
 C         -6.5814169632        1.5789430501       -0.6742543011
 C         -6.7748314343        0.1554012928       -1.1906283031
 H         -7.3627988429        0.2133183367       -2.1105185853
 H         -5.8026325788       -0.2648254592       -1.4547420800
 C         -7.4960324998       -0.7920077049       -0.2348298280
 H         -7.6347395789       -1.7398815653       -0.7611664069
 H         -8.4863674226       -0.3889587913       -0.0112204988
 C         -6.7810813836       -1.0823783321        1.0862329521
 H         -6.8871896012       -0.2523011458        1.7793807747
 H         -7.2846429768       -1.9373191038        1.5470188951
 C         -5.3119743686       -1.4685591088        0.9457058554
 H         -4.9674679436       -1.8789990232        1.9026491801
 H         -5.2259729090       -2.2951289692        0.2312657429
 H         -6.1634611392        2.1739181384       -1.4900736291
 H         -7.5490510178        2.0067136119       -0.4066253161
 H         -6.1565996722        1.4537379356        1.4568972575
 H         -5.3145452219        2.7471282452        0.6125812277
 O         -3.3512433424        1.6730263254        0.0309231025
 C         -2.0875751998        1.1699252648       -0.2194798527
 O         -1.2454068368        2.0294321856       -0.5418582764
 H          1.7404829605        0.7327385760       -0.8854612382
 C          1.5669008747        0.5595488536        0.1626253261
 C          0.4785927234       -0.1832463127        0.5896997936
 C          0.2847751237       -0.3578918538        1.9587671122
 C          1.1493235218        0.2092927978        2.8732447255
 C          2.2336754189        0.9547104466        2.4424698373
 C          2.4386614890        1.1332145657        1.0803078359
 N          3.5188875631        1.9033633900        0.6205593718
 S          4.4761512814        1.3783678656       -0.6435662324
 O          5.6394036626        2.2362878496       -0.5949407394
 O          3.7336751401        1.3782929319       -1.8772584196
 C          4.9332328201       -0.2844688146       -0.1890392275
 C          6.0101609999       -0.4593184039        0.6585742149
 C          6.3370757839       -1.7399440483        1.0730815916
 C          5.5785850826       -2.8183214245        0.6429491228
 C          4.5004198478       -2.6258075341       -0.2067893053
 C          4.1708036368       -1.3473311414       -0.6291424825
 H          3.3429497900       -1.1606046531       -1.2927248803
 H          3.9126836192       -3.4653894400       -0.5422477070
 H          5.8302322939       -3.8152324758        0.9688173781
 H          7.1781045152       -1.8933755893        1.7299101349
 H          6.5784456904        0.4054437421        0.9607389605
 H          4.0868696842        2.3024257008        1.3535139157
 H          2.9068008412        1.4066531430        3.1551059333
 H          0.9817776819        0.0701364531        3.9305925962
 H         -0.5650510794       -0.9372841855        2.2930026828
 C         -0.5235931754       -0.7924316657       -0.3580235253
 H         -0.6162334189       -1.8625220326       -0.1214145008
 C         -0.1615954742       -0.6475639570       -1.8201228508
 C          0.7827970501       -1.6203618385       -2.4582608737
 C         -0.6760573969       -1.6575501972       -2.7998849977
 H         -0.9892701100       -1.3159218255       -3.7750663904
 H         -1.2721732325       -2.4690945094       -2.4086649535
 H          1.1704904455       -2.4155811201       -1.8392247791
 H          1.4769549460       -1.2528935845       -3.1998530282
 H         -0.1283680816        0.3857975427       -2.1475961392
 O         -2.7881225263       -2.3131033428        0.4484385021
