  62
        -98.93714631
 C         -2.5407365669       -1.2597079440        0.2624773724
 C         -2.7298674391       -0.3319992802       -0.7877168048
 C         -3.8062254665        0.6615758131       -0.6069819576
 C         -4.5342733119        0.6618203874        0.5243902131
 C         -5.7009318032        1.5219897564        0.9628540916
 C         -6.0269905185        2.8273196016        0.2415208179
 C         -4.9746813937        3.9248573132        0.3950869827
 H         -5.2669170126        4.7676651167       -0.2351553789
 H         -4.9791430922        4.2680969626        1.4326369110
 C         -3.5432938164        3.5204218984        0.0508650535
 H         -3.2009638759        2.7517961720        0.7469860200
 H         -2.9042630576        4.3951733910        0.1991176064
 C         -3.3287278620        3.0261537400       -1.3784947016
 H         -3.7033967663        3.7691709559       -2.0852917533
 H         -2.2505548325        2.9306449170       -1.5346508466
 C         -3.9662292166        1.6660074927       -1.7121330419
 H         -5.0139148313        1.7746413978       -1.9815597932
 H         -3.4458289558        1.2542224790       -2.5817346563
 H         -6.9571376558        3.1994271921        0.6796447832
 H         -6.2288057157        2.6382539779       -0.8087349073
 H         -6.5822011940        0.8725849722        0.9165399685
 H         -5.5300995565        1.7327007940        2.0232931508
 O         -4.3153428776       -0.2526947782        1.5133371477
 C         -3.3351647814       -1.2191849974        1.4125079253
 O         -3.2689990388       -1.9806772478        2.3977601563
 H         -0.0303306826       -0.5056634382       -1.0810846284
 C          0.4979542185       -0.8964168819       -0.2238554374
 C         -0.1169804658       -1.8503433231        0.5743626737
 C          0.5753984260       -2.3406632634        1.6753139906
 C          1.8489570526       -1.8843473576        1.9667745759
 C          2.4555512119       -0.9286588371        1.1714839279
 C          1.7716462817       -0.4308505100        0.0701446310
 N          2.3664470090        0.5589493780       -0.7327407617
 S          3.9132273949        0.2738944167       -1.3198796149
 O          4.0332560319        1.1039883020       -2.4985119576
 O          4.1594384164       -1.1382666319       -1.5014515882
 C          4.9818003253        0.9186575051       -0.0493295857
 C          4.8061035931        2.2295682273        0.3484667764
 C          5.6383208362        2.7490070693        1.3271112660
 C          6.6290388374        1.9548890045        1.8854680868
 C          6.7954288128        0.6419769212        1.4722462272
 C          5.9651763130        0.1157585452        0.4947067905
 H          6.0530599725       -0.9009871579        0.1463403937
 H          7.5665833007        0.0265841555        1.9069994577
 H          7.2752264636        2.3619834928        2.6470538010
 H          5.5118820579        3.7695540408        1.6509746370
 H          4.0273684402        2.8139725405       -0.1124654802
 H          1.7605897671        0.8851703142       -1.4725456253
 H          3.4462770511       -0.5682188174        1.3955875352
 H          2.3746853455       -2.2748972146        2.8246856926
 H          0.1039216727       -3.0777959215        2.3089897752
 C         -1.4964520071       -2.3653892014        0.2370575620
 H         -1.7935160980       -3.0643682712        1.0303310877
 C         -1.4721272982       -3.1219398971       -1.0780856536
 C         -0.9339614735       -4.5193040966       -1.1035968852
 C         -2.4031358284       -4.2779736001       -1.2767829874
 H         -2.8415247553       -4.4242536222       -2.2525470692
 H         -3.0618132439       -4.5343834831       -0.4595213079
 H         -0.5972975948       -4.9431038402       -0.1695689161
 H         -0.3578140223       -4.8329546217       -1.9606770215
 H         -1.2747307667       -2.4908905106       -1.9346728172
 O         -2.0491490758       -0.3095291203       -1.8496999165
