  62
        -98.93462721
 C         -1.5787698609        0.6150447200       -0.7879195567
 C         -2.9301919530        0.7738047547       -1.1852668550
 C         -3.9496426896        0.7152275074       -0.1233928536
 C         -3.5574937027        0.4918243789        1.1423433882
 C         -4.4282140594        0.3365859482        2.3584272879
 C         -4.7413359165       -1.1471385033        2.6157250946
 C         -5.9645809206       -1.6857151192        1.8745362899
 H         -5.9938967302       -2.7654319911        2.0386472751
 H         -6.8679420880       -1.2624267001        2.3187846340
 C         -5.9883760170       -1.4163442929        0.3676187461
 H         -4.9978642082       -1.5984628124       -0.0536847538
 H         -6.6704320617       -2.1356065405       -0.0900418438
 C         -6.4544884652        0.0042872053        0.0155928580
 H         -7.2535792185       -0.0513072329       -0.7265283054
 H         -6.8882589278        0.4663507948        0.9022239383
 C         -5.3714853685        0.9230691354       -0.5689070637
 H         -5.3404328668        0.8017160766       -1.6562967439
 H         -5.6482845083        1.9655803635       -0.3791699497
 H         -3.8571406461       -1.7286531724        2.3406469232
 H         -4.9044918259       -1.2905666034        3.6858956489
 H         -3.8538576642        0.7213529069        3.2038033358
 H         -5.3389115138        0.9196602936        2.2586247538
 O         -2.2518187943        0.3174596485        1.4810027979
 C         -1.2316044960        0.3634458209        0.5405156611
 O         -0.1000737931        0.1781845192        1.0218901691
 O         -3.2749261310        0.9501221050       -2.3848493841
 C         -0.5237091025        0.6456570555       -1.8801445655
 C          0.3216387143       -0.6008055645       -1.8194832344
 C         -0.2251300706       -1.7941559192       -2.2844213302
 C          0.5078902087       -2.9643855350       -2.2662472743
 C          1.8012207565       -2.9657902383       -1.7749507304
 C          2.3526302190       -1.7854693938       -1.2935051344
 C          1.6164817223       -0.6080189981       -1.3223192525
 H          2.0527279312        0.2998584383       -0.9394510461
 N          3.6737825738       -1.7604341647       -0.7999500641
 S          3.8909986335       -1.3929275883        0.8305091272
 O          5.1832613691       -1.9692627633        1.1492401915
 O          2.7832316688       -1.8627831512        1.6282483934
 C          4.0403672478        0.3775906426        0.8902598044
 C          5.2015763328        0.9380280335        0.3934113907
 C          5.3640134314        2.3117595274        0.4606953588
 C          4.3713027701        3.0951451061        1.0308561946
 C          3.2128016660        2.5151022381        1.5240340916
 C          3.0373199578        1.1409672080        1.4516138242
 H          2.1360979050        0.6574663861        1.7950112007
 H          2.4384282710        3.1244396579        1.9628316276
 H          4.4990738613        4.1647622938        1.0909733586
 H          6.2618258553        2.7670121112        0.0746730859
 H          5.9537712767        0.2883131534       -0.0220337609
 H          4.1892565188       -2.6059632378       -1.0067235898
 H          2.3808689950       -3.8771132695       -1.7568807443
 H          0.0719223689       -3.8810074449       -2.6344029474
 H         -1.2379962877       -1.7902917930       -2.6640131944
 H         -1.1090491904        0.6015364423       -2.8136586595
 C          0.2962335885        1.9239268095       -1.9542945880
 C         -0.3665280566        3.2551612573       -1.7626346848
 C          0.6353229754        2.7646771603       -0.7629852618
 H          1.6072746699        3.2350481533       -0.7374935495
 H          0.2846235081        2.4381308442        0.2025033057
 H         -0.0905517380        4.0692104058       -2.4155080415
 H         -1.4102153100        3.2519767190       -1.4829784202
 H          1.0482117689        1.8679970347       -2.7356596920
