  62
        -98.93968851
 C          2.5775675891        0.3902951745       -0.0163222078
 C          2.1235662790        1.3656400193       -0.9345977405
 C          1.3858074175        2.4967163687       -0.3602815667
 C          1.2096725759        2.5664351115        0.9713585300
 C          0.4627191999        3.6396381047        1.7154809871
 C         -1.0586707804        3.6504706308        1.4650310271
 C         -1.5083931860        4.6523309781        0.3942615537
 H         -2.4373265811        5.1231665079        0.7223560547
 H         -0.7627571995        5.4453502611        0.3216305488
 C         -1.7711886578        4.0731219770       -0.9994976713
 H         -2.7452270426        3.5780371726       -1.0034946251
 H         -1.8208419987        4.9070789374       -1.7036265761
 C         -0.7510343536        3.0551505683       -1.5118701946
 H         -0.9410170228        2.8866733767       -2.5745295235
 H         -0.9167874538        2.0896518485       -1.0252704345
 C          0.7254821697        3.4525765969       -1.3108601671
 H          1.2615862018        3.3750394409       -2.2591510127
 H          0.8047280550        4.4769262294       -0.9494981879
 H         -1.3820736106        2.6399968755        1.2099117291
 H         -1.5382199265        3.9178629491        2.4081286074
 H          0.6524416248        3.4516931882        2.7739225598
 H          0.8865383220        4.6139435855        1.4631260044
 O          1.7233647467        1.6432780606        1.8271517985
 C          2.3544397648        0.5044152923        1.3555741552
 O          2.6841851671       -0.3038433117        2.2459519838
 O          2.3166926297        1.2864456555       -2.1795027676
 C          3.1666478865       -0.9068599251       -0.5455805175
 C          2.2198883205       -2.0170633798       -0.1551824131
 C          2.6043519619       -3.1825573331        0.4923406669
 C          1.6489191348       -4.0956574353        0.9074073587
 C          0.3022135335       -3.8599010863        0.7042696595
 C         -0.0904952239       -2.7066832317        0.0314979169
 C          0.8692915113       -1.8173787198       -0.4165828571
 H          0.5556569944       -0.9251649272       -0.9398158051
 N         -1.4485454993       -2.4345214873       -0.2112113526
 S         -1.9323757306       -0.8237101170       -0.3602887166
 O         -1.6746504589       -0.3971612275       -1.7128227788
 O         -1.3681475486       -0.0109483010        0.6942576836
 C         -3.6909194457       -1.0043356866       -0.1288983331
 C         -4.4326610838       -1.5534046442       -1.1583689210
 C         -5.7964091078       -1.7250359004       -0.9837971639
 C         -6.3930356763       -1.3460279956        0.2099650888
 C         -5.6366334115       -0.7934168485        1.2322487511
 C         -4.2710143920       -0.6214226363        1.0649563562
 H         -3.6424427760       -0.1927578522        1.8292787962
 H         -6.1030004526       -0.4960901821        2.1576225869
 H         -7.4549150951       -1.4794616971        0.3432139170
 H         -6.3880753648       -2.1516617611       -1.7774827937
 H         -3.9257115515       -1.8218130399       -2.0704779501
 H         -2.0700542530       -2.9618664133        0.3863649599
 H         -0.4404306112       -4.5560889015        1.0629886441
 H          1.9584167879       -4.9935171867        1.4206874154
 H          3.6471649503       -3.3659515837        0.6928086157
 H          3.1621162379       -0.8089695327       -1.6414826253
 C          4.5884452969       -1.1145195270       -0.0740004341
 C          5.5322073900       -1.9538773085       -0.8812316266
 C          5.7059080312       -0.4665163958       -0.8332005596
 H          6.5372735629       -0.0596431118       -0.2776612173
 H          5.4406447046        0.1103170139       -1.7072367457
 H          6.2496980819       -2.5690657860       -0.3598310450
 H          5.1553912576       -2.3901193114       -1.7939445899
 H          4.6672729120       -1.1438355354        1.0066816342
