  62
        -98.93174828
 C         -2.5001089391       -1.1013665831        0.5381684514
 C         -3.3709731064       -0.8226381445       -0.5408645514
 C         -4.5361831751        0.0428764562       -0.2484932332
 C         -4.6990337368        0.5244681515        0.9967873739
 C         -5.7707323849        1.4483041173        1.5120248773
 C         -5.5570513895        2.9068419173        1.0771523427
 C         -5.1727006682        3.0897226816       -0.3885556253
 H         -4.9521187759        4.1491240772       -0.5438552679
 H         -4.2543153515        2.5352641535       -0.5897766898
 C         -6.2442228796        2.6828794676       -1.3972799882
 H         -5.8760739964        2.9574148077       -2.3891308741
 H         -7.1518070110        3.2607987409       -1.2090007819
 C         -6.6096432489        1.1970002576       -1.4228346323
 H         -7.1777422981        1.0178191066       -2.3404292290
 H         -7.2687206517        0.9391165830       -0.5981781875
 C         -5.4153243795        0.2488395336       -1.4589385921
 H         -5.7723378197       -0.7508788165       -1.7347682265
 H         -4.7452125167        0.5475389863       -2.2729913766
 H         -4.7532485234        3.3266067716        1.6869384543
 H         -6.4693619527        3.4667646275        1.2898764477
 H         -5.7257370373        1.4007575714        2.6023726717
 H         -6.7500779525        1.0926928798        1.2060352878
 O         -3.8230189839        0.2399086005        2.0039338531
 C         -2.7224040834       -0.5661221071        1.8089095229
 O         -2.0249213046       -0.7421502847        2.8295116364
 O         -3.2086659881       -1.2594956694       -1.7088799997
 C         -1.2693348553       -1.9844188360        0.4126487918
 C         -0.0771928751       -1.1701923767       -0.0196935084
 C         -0.1106938640       -0.3977177628       -1.1767959344
 C          0.9942481066        0.3420595971       -1.5560173322
 C          2.1484013232        0.3334994356       -0.7916802350
 C          2.1918328642       -0.4312317858        0.3657504972
 C          1.0821211937       -1.1784128224        0.7413559355
 H          1.1156255194       -1.7640773854        1.6506522939
 N          3.3540248360       -0.4303236730        1.1541047931
 S          4.8325644475       -0.7073201994        0.4082917233
 O          4.6779261256       -1.5175685086       -0.7772503880
 O          5.6837997218       -1.2419542366        1.4482179809
 C          5.4047784836        0.9200594025       -0.0309417067
 C          5.5449972852        1.8544804137        0.9763326497
 C          5.9950616687        3.1244082829        0.6527767685
 C          6.2984459851        3.4357357995       -0.6644139410
 C          6.1564698744        2.4850899529       -1.6635623874
 C          5.7057255266        1.2130067885       -1.3466297938
 H          5.5763996065        0.4432130531       -2.0908670602
 H          6.3941122567        2.7288706163       -2.6865841143
 H          6.6484295250        4.4251268458       -0.9134003713
 H          6.1072261627        3.8662900844        1.4269786137
 H          5.3035128230        1.5714671741        1.9873662307
 H          3.2717785276       -0.9663257522        2.0057524165
 H          3.0099317277        0.9117066869       -1.0829931637
 H          0.9563887774        0.9356289045       -2.4569283103
 H         -1.0101147595       -0.3905465465       -1.7736508304
 H         -1.0714582512       -2.3393304906        1.4368188628
 C         -1.5020635978       -3.2175111565       -0.4505301656
 C         -0.8252604863       -3.4621730290       -1.7622815206
 C         -0.4295307272       -4.2613376827       -0.5596001891
 H         -0.7097301276       -5.3025954893       -0.5079745387
 H          0.5270406499       -4.0392344870       -0.1090284248
 H         -1.4029087523       -3.9398211797       -2.5387747335
 H         -0.1310405853       -2.7233202152       -2.1299806967
 H         -2.5209690236       -3.5809942830       -0.3658927102
