  62
        -98.93112400
 C          0.8418749603        0.9990665906        0.9558987994
 C          1.5164614380        0.9516367449       -0.2859925318
 C          2.2914053499       -0.2732101530       -0.5693673069
 C          2.2970556372       -1.2650314553        0.3388050778
 C          3.0471171546       -2.5679189429        0.2713001451
 C          4.5486713200       -2.4032849992        0.5731989504
 C          5.1965564368       -1.1486563075       -0.0092035276
 H          6.2006579591       -1.0650610654        0.4148449273
 H          4.6338343441       -0.2711765528        0.3149540261
 C          5.3314905475       -1.1297867177       -1.5298755024
 H          5.9954206392       -1.9406045637       -1.8392184001
 H          5.8075698435       -0.1856182367       -1.8061839346
 C          4.0266233685       -1.2578434929       -2.3158090281
 H          3.6442029824       -2.2738642531       -2.2628509544
 H          4.2584845207       -1.0694956649       -3.3685948729
 C          2.9370862843       -0.2594602131       -1.9324219010
 H          2.1074666915       -0.3597665176       -2.6449840847
 H          3.3203668301        0.7582284651       -2.0687043889
 H          5.0743679809       -3.2883170725        0.2116968034
 H          4.6671579494       -2.3593666302        1.6583008473
 H          2.6120170050       -3.2260004322        1.0268485052
 H          2.8867021052       -3.0297856022       -0.6992287985
 O          1.6218275335       -1.1795535641        1.5209338476
 C          0.8646868674       -0.0704097065        1.8471376481
 O          0.2668795578       -0.1540923056        2.9400529163
 H         -1.5568003911        0.3734942053        0.3584125345
 C         -1.6979135081        1.2839168121       -0.2070550154
 C         -0.9761479451        2.4200618005        0.1563201391
 C         -1.1914245404        3.5773241908       -0.5791539551
 C         -2.0693234133        3.5768720631       -1.6521973933
 C         -2.7351437801        2.4299639017       -2.0372948322
 C         -2.5363720720        1.2650058776       -1.3052581923
 N         -3.1769055737        0.0620224802       -1.6450996776
 S         -2.3183907895       -1.3698386512       -1.5007843400
 O         -0.9131911930       -1.1947902892       -1.7855456253
 O         -3.0244723152       -2.2966555766       -2.3632053811
 C         -2.5586054267       -1.8700899114        0.1897643269
 C         -3.8023142842       -1.7097947192        0.7678576156
 C         -3.9858230295       -2.1193223473        2.0786329156
 C         -2.9320542286       -2.6824076742        2.7826640272
 C         -1.6924137478       -2.8451752491        2.1847623129
 C         -1.5030979364       -2.4378244101        0.8742547106
 H         -0.5491352926       -2.5281616737        0.3773023273
 H         -0.8677582960       -3.2694872862        2.7344849838
 H         -3.0732574069       -2.9928573470        3.8058519767
 H         -4.9474959441       -1.9938616912        2.5496515435
 H         -4.5948269621       -1.2620274902        0.1918622746
 H         -3.7151161292        0.0915610203       -2.4991719725
 H         -3.3902021912        2.4285395027       -2.8951145438
 H         -2.2151589237        4.4877490062       -2.2132540008
 H         -0.6669753917        4.4881032221       -0.3556617714
 C         -0.0330787678        2.1959513099        1.3159825893
 H         -0.6537232979        1.8515803527        2.1609566854
 C          0.8511538037        3.2990094264        1.8756558145
 C          1.5649884377        4.3352229190        1.0663520974
 C          0.4688758218        4.7428326898        2.0072649735
 H          0.7530405762        5.2510449762        2.9171183736
 H         -0.4792303886        5.0673772287        1.6120363120
 H          1.3989906713        4.3436570585        0.0016279023
 H          2.5841594343        4.5689342027        1.3395922124
 H          1.4164246708        2.8915322587        2.7119994185
 O          1.4864011595        1.8875706941       -1.1255708459
