  62
        -98.93685261
 C         -2.1933773101       -1.1723776626       -0.0987049685
 C         -3.2228850174       -0.8486721133        0.8182487140
 C         -4.1311934073        0.2506675836        0.4458455589
 C         -3.9107539768        0.9146579969       -0.7029053823
 C         -4.6862842733        2.0641133964       -1.2950755446
 C         -5.1006728937        3.1853956853       -0.3297396993
 C         -6.6042907832        3.2232342338       -0.0509191608
 H         -6.8766200137        4.2352604919        0.2566905596
 H         -7.1353375106        3.0118368155       -0.9813865152
 C         -7.0872509450        2.2643446848        1.0358253641
 H         -6.7531517366        2.6260378208        2.0106616577
 H         -8.1794493458        2.2896106650        1.0367215000
 C         -6.6305099753        0.8126807733        0.8774491963
 H         -6.6801547741        0.5084518454       -0.1673698183
 H         -7.3314089911        0.1808658448        1.4270162236
 C         -5.2249821340        0.5451314585        1.4360973764
 H         -4.9099645044        1.3791617329        2.0699282419
 H         -5.2496859973       -0.3333907634        2.0882453227
 H         -4.5432304870        3.0969144957        0.6015671452
 H         -4.8180076659        4.1362721347       -0.7845484864
 H         -4.0390130625        2.4678796222       -2.0771121188
 H         -5.5694889630        1.6631363646       -1.7986927138
 O         -2.8922791847        0.5834248259       -1.5467931868
 C         -2.0163366175       -0.4549244912       -1.2806321111
 O         -1.1558001663       -0.6259828747       -2.1667240013
 H          0.8976330617       -1.7559355596       -1.3449795362
 C          1.0686386174       -1.4677163353       -0.3197488961
 C          0.0875080835       -1.6970668579        0.6327714030
 C          0.3178616130       -1.2785678662        1.9402157171
 C          1.5012789321       -0.6511125191        2.2821052287
 C          2.4744789234       -0.4160717306        1.3262598089
 C          2.2457480119       -0.8129077812        0.0161152340
 N          3.2183514684       -0.5543212924       -0.9677550159
 S          3.7879744373        1.0227709686       -1.0878567675
 O          2.8154424013        1.9826974538       -0.6178483980
 O          4.2282267998        1.1667716908       -2.4586281707
 C          5.2179279595        1.0308268623       -0.0244834711
 C          6.2117787681        0.1020190269       -0.2644289754
 C          7.3337994870        0.0971626150        0.5486225044
 C          7.4443813242        1.0178144276        1.5801485621
 C          6.4401044698        1.9466396975        1.8055501833
 C          5.3144360603        1.9560683630        0.9962941019
 H          4.5057831072        2.6557835330        1.1369400420
 H          6.5276606516        2.6623185157        2.6071967477
 H          8.3184713437        1.0119092293        2.2119764339
 H          8.1170091389       -0.6233101924        0.3761049362
 H          6.0881444311       -0.5923217214       -1.0785242401
 H          2.9511778915       -0.8933982570       -1.8815541918
 H          3.3943038618        0.0841369075        1.5817940215
 H          1.6674370347       -0.3370633879        3.3013548536
 H         -0.4527500050       -1.4364179989        2.6816050974
 C         -1.2454945558       -2.3030681623        0.2695536166
 H         -1.6722109569       -2.7533964030        1.1754953414
 C         -1.1611460093       -3.3642638603       -0.8071904882
 C         -0.5601023936       -4.6957729674       -0.4729812138
 C         -2.0350333488       -4.5772813165       -0.7086326667
 H         -2.4483050275       -4.9877049064       -1.6177933095
 H         -2.6965909027       -4.6487975179        0.1421286874
 H          0.0420056629       -5.1916513336       -1.2187509325
 H         -0.2194240665       -4.8461776868        0.5401013328
 H         -0.9876356209       -2.9634855854       -1.7980404169
 O         -3.3848163588       -1.4619291361        1.9071800008
