  62
        -98.94591491
 C          1.2933223400        1.4226884794        0.6225158040
 C          2.3689031697        1.3163087059       -0.2937898709
 C          3.3655320697        0.2745116242        0.0032288454
 C          3.2139634589       -0.5018475422        1.0903822619
 C          4.1325965080       -1.6226349766        1.4823057175
 C          3.6917451688       -2.9625403023        0.8757479097
 C          3.3781962863       -2.8940158625       -0.6186601701
 H          3.1027331139       -3.9013250521       -0.9379641676
 H          2.5075797146       -2.2530753869       -0.7745467710
 C          4.5385636269       -2.3879846518       -1.4865964946
 H          5.4767081127       -2.4675574420       -0.9359576642
 H          4.6241410906       -3.0296800607       -2.3659806370
 C          4.3706983949       -0.9554505310       -1.9956150287
 H          5.1253871320       -0.7783013693       -2.7664918554
 H          3.3903092267       -0.8447363516       -2.4655105159
 C          4.5275009335        0.1475885903       -0.9415898606
 H          4.5896963671        1.1040165816       -1.4686729609
 H          5.4578639689       -0.0003326733       -0.3893518403
 H          4.4835830580       -3.6935058396        1.0496439266
 H          2.7976905897       -3.3060089482        1.4012746493
 H          4.1248948131       -1.7064674677        2.5706114207
 H          5.1428144548       -1.3821169415        1.1559466679
 O          2.1710221479       -0.3683600477        1.9502692454
 C          1.1957195274        0.5919936638        1.7419277523
 O          0.3049262849        0.6083674200        2.6162667720
 O          2.5164737628        2.0474421961       -1.3067805169
 C          0.1711620675        2.4370552881        0.4545937373
 C         -0.7905596174        1.9593198542       -0.6077425613
 C         -0.5152459387        2.0833187074       -1.9656595600
 C         -1.4129941522        1.6117547379       -2.9058214311
 C         -2.5908806071        0.9990029016       -2.5159704188
 C         -2.8735388825        0.8656197883       -1.1618287219
 C         -1.9778920123        1.3529216536       -0.2199983640
 H         -2.2140220017        1.2522095158        0.8287981303
 N         -4.0647486367        0.2550506966       -0.7363613344
 S         -4.0384987825       -0.8135193536        0.5507209753
 O         -5.2606614525       -1.5745009829        0.4031838967
 O         -3.8879236735       -0.0950835997        1.7893094266
 C         -2.6340073869       -1.8661536002        0.2385351311
 C         -2.7579086353       -2.8216364091       -0.7525087876
 C         -1.6700549887       -3.6233503785       -1.0540409074
 C         -0.4774073454       -3.4539172542       -0.3663651101
 C         -0.3716715983       -2.4934546629        0.6262852422
 C         -1.4572756455       -1.6885242841        0.9351931128
 H         -1.3902305309       -0.9346636596        1.7042612032
 H          0.5504515119       -2.3525939791        1.1682335268
 H          0.3734015654       -4.0739956636       -0.6009851172
 H         -1.7515202367       -4.3750232625       -1.8224803255
 H         -3.7057406377       -2.9317656846       -1.2540954183
 H         -4.6431092535       -0.0961076130       -1.4860583213
 H         -3.2889208278        0.6294212584       -3.2515536262
 H         -1.1894433294        1.7160181041       -3.9566809525
 H          0.4161451939        2.5282571740       -2.2766258287
 H         -0.3696791365        2.4406158401        1.4109206979
 C          0.6756027960        3.8413812641        0.1887607996
 C         -0.2527610660        4.9956683788        0.4113844461
 C          0.8978582776        4.7677439714        1.3443458481
 H          1.7366058183        5.4466702248        1.3068062294
 H          0.6848766012        4.3929420177        2.3354193220
 H         -0.2066130116        5.8335896596       -0.2670259364
 H         -1.2470525482        4.7741402064        0.7702922849
 H          1.3730982232        3.9055847188       -0.6352800567
