  62
        -98.93774666
 C         -2.0804904992       -1.0665366400        0.0098632096
 C         -2.8717533995       -0.4378910200        0.9989143294
 C         -3.6276089094        0.7446354400        0.5652449891
 C         -3.4975760691        1.1894385500       -0.6977356009
 C         -4.1454495889        2.4128458599       -1.2909294411
 C         -5.6820154789        2.3829855399       -1.4057785214
 C         -6.4172280492        3.0259932900       -0.2232244316
 H         -5.7512400593        3.7461354900        0.2539061585
 H         -7.2683208991        3.5927335800       -0.6060939219
 C         -6.9630801594        2.0572764000        0.8303363783
 H         -7.8807911693        1.6005464200        0.4531034381
 H         -7.2257793597        2.6400795701        1.7157552182
 C         -6.0250452995        0.9235155600        1.2444941885
 H         -5.9929193793        0.1671092500        0.4568075086
 H         -6.4482212897        0.4349666801        2.1243993285
 C         -4.5793756096        1.3629040801        1.5478904589
 H         -4.4951980496        2.4486739701        1.5333876388
 H         -4.2812950698        1.0074015401        2.5364120090
 H         -6.0155488789        1.3558081099       -1.5505139315
 H         -5.9408142387        2.9370819199       -2.3093953515
 H         -3.7143855487        2.5129996799       -2.2892936010
 H         -3.8421097991        3.2866420100       -0.7092321910
 O         -2.6926174889        0.5770564699       -1.6096315306
 C         -1.9776781589       -0.5677321501       -1.2889638604
 O         -1.3018307887       -1.0309588001       -2.2264872702
 O         -2.9330582298       -0.8372652499        2.1936181894
 C         -1.2829878393       -2.3042974400        0.3794795498
 C          0.1889762707       -2.0481505700        0.1676903102
 C          1.0291872409       -2.9140114900       -0.5188971496
 C          2.3660039409       -2.5998604000       -0.6953237593
 C          2.8946658108       -1.4278175400       -0.1875421092
 C          2.0648720506       -0.5578517100        0.5081235305
 C          0.7281299806       -0.8762106900        0.6851181002
 H          0.0814195105       -0.1931992999        1.2234455501
 N          2.5958893605        0.6324995300        1.0409523206
 S          3.4074789308        1.6582632200       -0.0156944492
 O          3.3039287406        2.9717105900        0.5836909607
 O          2.9175653211        1.5281336199       -1.3685812293
 C          5.0988885007        1.1101614600        0.0809959812
 C          5.7080452904        1.0914329501        1.3205529213
 C          7.0255607004        0.6719910801        1.4116391717
 C          7.7083187607        0.2834753500        0.2684338719
 C          7.0835121910        0.3113142700       -0.9689794483
 C          5.7651528610        0.7289487500       -1.0670865186
 H          5.2353552612        0.7616702099       -2.0059355388
 H          7.6154905512        0.0092926999       -1.8568175782
 H          8.7336981607       -0.0427493900        0.3421720221
 H          7.5148827802        0.6489960701        2.3719567518
 H          5.1428047302        1.4049248401        2.1822096912
 H          1.9264957804        1.1586223901        1.5849091404
 H          3.9332416008       -1.1772846800       -0.3291388390
 H          3.0053582711       -3.2784997301       -1.2389498791
 H          0.6356038910       -3.8298573900       -0.9277328097
 H         -1.4537589496       -2.4507003399        1.4566189998
 C         -1.8055909291       -3.5141727400       -0.3656405403
 C         -1.6749874793       -4.8827113500        0.2312031698
 C         -3.0170776693       -4.2201937100        0.1627980095
 H         -3.7442547391       -4.5937473600       -0.5424470907
 H         -3.4508709695       -3.8424821700        1.0772616794
 H         -1.4827119291       -5.7162391500       -0.4272093201
 H         -1.1990961395       -4.9627812000        1.1966786000
 H         -1.7166164489       -3.4097519401       -1.4412325202
