  62
        -98.94526347
 C         -1.5902244848       -0.2142260211       -0.6221403868
 C         -2.8603644082       -0.7766574628       -0.9057543770
 C         -3.8914763053       -0.5943161113        0.1207520871
 C         -3.5841065458        0.0370510818        1.2682323045
 C         -4.5139124027        0.2678095569        2.4286410097
 C         -5.4119558361        1.5031730406        2.2757023302
 C         -6.5417288162        1.3642292371        1.2545132779
 H         -7.1071282886        0.4551819041        1.4619380149
 H         -7.2162381747        2.2091365984        1.4069442911
 C         -6.0761676511        1.3619216972       -0.2082276165
 H         -6.7138530902        2.0276349054       -0.7941012821
 H         -5.0598658884        1.7579605666       -0.2671268021
 C         -6.1120678834       -0.0091951744       -0.8831343264
 H         -7.1447379892       -0.3588956647       -0.9483290643
 H         -5.7283809478        0.0997584855       -1.9006205576
 C         -5.2771382294       -1.0839509069       -0.1747303338
 H         -5.7721076156       -1.4009615861        0.7430563812
 H         -5.1897418847       -1.9455727342       -0.8411025177
 H         -4.7860857669        2.3592090762        2.0133543853
 H         -5.8568271211        1.7042822076        3.2530322637
 H         -5.1328481200       -0.6165915545        2.5832736783
 H         -3.8820842429        0.4074809338        3.3086544962
 O         -2.3450050601        0.5355213539        1.5180478396
 C         -1.3228531627        0.4383413608        0.5820611516
 O         -0.2589729797        0.9742842920        0.9439773613
 H          2.0359699473       -0.0825821034       -0.6033747680
 C          1.7179557851       -1.1091701931       -0.6241825896
 C          0.4733418660       -1.4373966350       -1.1363634174
 C          0.0856815487       -2.7754622016       -1.1474904651
 C          0.9273657723       -3.7560502369       -0.6599624071
 C          2.1658955948       -3.4216892503       -0.1384243410
 C          2.5587760429       -2.0898233559       -0.1147919007
 N          3.8158992267       -1.7128329815        0.3887651893
 S          3.8887274448       -0.4669804784        1.5177585570
 O          5.1718831724       -0.6576236737        2.1647484397
 O          2.7375514379       -0.4795457195        2.3887706834
 C          3.9625685436        1.0190993711        0.5419068480
 C          5.0758964196        1.2070083260       -0.2539461160
 C          5.1582658872        2.3511874026       -1.0304781672
 C          4.1318915756        3.2834545523       -0.9954870409
 C          3.0240251905        3.0807743612       -0.1870088262
 C          2.9330844302        1.9379130112        0.5934363368
 H          2.0705301422        1.7330343907        1.2094901597
 H          2.2216984889        3.8014463930       -0.1620927069
 H          4.1930017042        4.1732827540       -1.6023362279
 H          6.0176982195        2.5122059432       -1.6610438103
 H          5.8520480454        0.4601352385       -0.2448653131
 H          4.3873454924       -2.4893816706        0.6916504569
 H          2.8224618125       -4.1860551838        0.2499048384
 H          0.6168980710       -4.7900327452       -0.6792160073
 H         -0.8878387498       -3.0326907366       -1.5412135248
 C         -0.4871519836       -0.3938491121       -1.6534180567
 H         -0.9879333680       -0.8111088184       -2.5385117683
 C          0.1775875645        0.9115827016       -2.0341293423
 C          1.0714092899        0.9575859276       -3.2364138339
 C         -0.2649804010        1.6344516773       -3.2692344733
 H         -0.2988905050        2.7132678805       -3.2489991918
 H         -1.0509153591        1.1847112196       -3.8583273006
 H          1.9595882797        1.5692943278       -3.1921380935
 H          1.1915452130        0.0455754109       -3.8012146673
 H          0.4526559976        1.5167200426       -1.1796012938
 O         -3.1188060458       -1.4043708821       -1.9673943234
