  62
        -98.93994442
 C          1.8687941440        0.1497107343        0.8862285727
 C          2.4125609403       -1.0181641119        0.2909113769
 C          3.8749660200       -1.0782585349        0.1809498981
 C          4.6096273270       -0.0587737921        0.6608824674
 C          6.1039005013        0.0420229962        0.5656588313
 C          6.5282507512        0.7746348168       -0.7149504014
 C          5.8493317687        0.2502380452       -1.9804216641
 H          4.7790730009        0.4627213514       -1.9256524818
 H          6.2468253397        0.8207736877       -2.8227077902
 C          6.0547083718       -1.2494664175       -2.2360407304
 H          6.3035212369       -1.3938262748       -3.2895302045
 H          6.9005939637       -1.6123989582       -1.6510758285
 C          4.8282277815       -2.1164459717       -1.9452586928
 H          3.9565484388       -1.7019026030       -2.4580044531
 H          5.0096667803       -3.1114832771       -2.3602743906
 C          4.4743842599       -2.2962325619       -0.4636387919
 H          5.3559098196       -2.6298283369        0.0876432635
 H          3.7104628583       -3.0763265430       -0.3969584751
 H          6.2795740032        1.8329836430       -0.6066136788
 H          7.6114836074        0.6895695953       -0.8189576140
 H          6.4675467823        0.5994658841        1.4305066434
 H          6.5323614864       -0.9581847164        0.5838486342
 O          4.0597170988        1.0321434915        1.2489463783
 C          2.6822461584        1.1766201819        1.3681485869
 O          2.3414722091        2.2471564385        1.9068830494
 O          1.7012069639       -1.9720508582       -0.1252597757
 C          0.3596953436        0.2140581559        1.0002084155
 C         -0.3040351609        1.0546488416       -0.0680468314
 C          0.3367335344        2.1113955476       -0.7017792826
 C         -0.3227855231        2.8582575942       -1.6623483946
 C         -1.6340327640        2.5772495141       -1.9984581194
 C         -2.2891620298        1.5260815900       -1.3669286180
 C         -1.6176579939        0.7690785040       -0.4185267587
 H         -2.1300130543       -0.0526904412        0.0555104007
 N         -3.6119981254        1.1995551968       -1.6969333665
 S         -4.6960521567        0.7918727894       -0.4863613948
 O         -5.9977638066        0.9955463075       -1.0851047271
 O         -4.4341654258        1.5237271226        0.7300052031
 C         -4.4460500503       -0.9509964659       -0.2254293838
 C         -4.3768003794       -1.4366435574        1.0655405386
 C         -4.2033005395       -2.7977895856        1.2620739395
 C         -4.1077791646       -3.6454092359        0.1691649185
 C         -4.1860074378       -3.1425062684       -1.1209563791
 C         -4.3592932342       -1.7828604579       -1.3242856233
 H         -4.4223216845       -1.3570562007       -2.3116686389
 H         -4.1099116948       -3.8057890345       -1.9674825281
 H         -3.9695039724       -4.7037837316        0.3245512477
 H         -4.1407438356       -3.1896843065        2.2648476607
 H         -4.4481022176       -0.7397396746        1.8859103477
 H         -4.0372055044        1.8001986030       -2.3883930278
 H         -2.1471482049        3.1651194310       -2.7443504492
 H          0.1902889250        3.6748403735       -2.1479684053
 H          1.3530271314        2.3553025716       -0.4330967552
 H          0.0191595453       -0.8216262750        0.8571191756
 C         -0.1094024141        0.6833322772        2.3662548945
 C         -1.3580477640        0.1144604442        2.9658372520
 C         -0.0206409126       -0.2484695311        3.5363267176
 H          0.2669431905        0.1564350807        4.4946891101
 H          0.3569219286       -1.2436087823        3.3508044049
 H         -2.0042019746        0.7727870389        3.5261608318
 H         -1.8850804722       -0.6439914997        2.4071018035
 H          0.1073405323        1.7284254138        2.5504823051
