  62
        -98.94091854
 C         -1.7618201870       -1.3589882105        0.6270847296
 C         -1.8120388053       -0.0437893223        1.1578923478
 C         -3.0711368352        0.6854918180        0.9760672477
 C         -4.1136007569        0.0728090127        0.3870350022
 C         -5.4813529429        0.6616406331        0.1699356923
 C         -5.6021069325        1.5165710838       -1.0989026005
 C         -4.8951857614        2.8710697720       -1.0386166551
 H         -5.2379287905        3.4497634695       -1.8986815188
 H         -5.2107645330        3.4043757704       -0.1413381786
 C         -3.3631557595        2.7848172572       -1.0790584956
 H         -3.0634707336        1.7981414570       -1.4399335506
 H         -2.9759984265        3.5160812728       -1.7919579269
 C         -2.6744759950        3.0499965009        0.2597858415
 H         -2.8510721984        4.0838523617        0.5645944367
 H         -1.5997667644        2.9148606906        0.1164714193
 C         -3.1233432061        2.1228287009        1.3973499318
 H         -2.4371680079        2.2476715767        2.2387098967
 H         -4.1281573297        2.3880715830        1.7257742696
 H         -6.6662806967        1.6922159230       -1.2729976666
 H         -5.2177523780        0.9419993590       -1.9448576378
 H         -5.7654830543        1.2559009747        1.0390140029
 H         -6.1715756738       -0.1805045121        0.0841479944
 O         -4.0423261195       -1.2033938403       -0.0708573665
 C         -2.8599046022       -1.9371657446       -0.0114475261
 O         -2.9469097488       -3.0573175252       -0.5455539415
 O         -0.8467955452        0.4917099028        1.7641751951
 C         -0.4372020123       -2.0868116241        0.7674002200
 C          0.4778274009       -1.7444604852       -0.3816751160
 C          0.0261643102       -1.7848092805       -1.6973104308
 C          0.8777672933       -1.4668221114       -2.7389610032
 C          2.1868962552       -1.0926684146       -2.4901293106
 C          2.6494771070       -1.0503665477       -1.1799623981
 C          1.7932726431       -1.3800330234       -0.1368626470
 H          2.1673851292       -1.3482365031        0.8747161153
 N          3.9795014154       -0.7015605826       -0.9062704277
 S          4.3772371812        0.2681287827        0.3978991308
 O          5.7433468590        0.6642140858        0.1361589409
 O          4.1470729693       -0.4445163616        1.6282476144
 C          3.3041997708        1.6851031025        0.2706570777
 C          3.6415510543        2.6707472439       -0.6380695905
 C          2.8020715698        3.7615523272       -0.7881226321
 C          1.6407758764        3.8480493545       -0.0335296853
 C          1.3203594420        2.8539060422        0.8765857830
 C          2.1560587611        1.7591554662        1.0306284193
 H          1.9118320681        0.9750938764        1.7277740912
 H          0.4183724915        2.8992617798        1.4656369878
 H          0.9839011107        4.6955906588       -0.1526998751
 H          3.0520638118        4.5394676104       -1.4915987966
 H          4.5600026812        2.5739446228       -1.1942147310
 H          4.5241759928       -0.4551956175       -1.7198029829
 H          2.8486571835       -0.8413154177       -3.3047088343
 H          0.5174930477       -1.5059163048       -3.7559332002
 H         -0.9950205149       -2.0778973735       -1.8920168518
 H          0.0203081316       -1.6718045790        1.6805374537
 C         -0.5770604371       -3.5871004060        0.9789184839
 C         -0.1994027238       -4.6038339677       -0.0516852533
 C          0.6477141861       -4.4319314249        1.1712242507
 H          0.6310713557       -5.2018900772        1.9277427723
 H          1.6077819985       -3.9512123987        1.0526697192
 H         -0.8211763177       -5.4816213869       -0.1378195717
 H          0.1899129931       -4.2543909113       -0.9949042951
 H         -1.4354530055       -3.8296112941        1.5969656165
