  62
        -98.93785814
 C         -2.5893113428       -1.1353605246        0.5168266896
 C         -3.4493236283       -0.8554845911       -0.5742919545
 C         -4.6040291866        0.0077824796       -0.2719319028
 C         -4.7799384706        0.4737812841        0.9768234377
 C         -5.8748883726        1.4084668589        1.4005250935
 C         -5.4332720264        2.8733728352        1.2756844934
 C         -4.8027179350        3.2152415467       -0.0743487570
 H         -4.5600965076        4.2799900106       -0.0593447704
 H         -3.8598003119        2.6727156558       -0.1749869923
 C         -5.6941100427        2.9108940813       -1.2864680674
 H         -6.7310036521        2.8028302061       -0.9661241024
 H         -5.6539206862        3.7595965959       -1.9725339725
 C         -5.2788120512        1.6734017775       -2.0842214240
 H         -4.2154079103        1.7351177741       -2.3283927311
 H         -5.8316866748        1.6757855375       -3.0274017438
 C         -5.5396350819        0.3227854713       -1.4054957669
 H         -6.5783546471        0.2722997589       -1.0728601815
 H         -5.3789799387       -0.4598928499       -2.1527767879
 H         -6.3024725739        3.5113179183        1.4458511173
 H         -4.7000702389        3.0816093991        2.0583491979
 H         -6.7558748484        1.2299264289        0.7871056506
 H         -6.1207879932        1.1996844603        2.4430912381
 O         -3.9368649345        0.1789465202        1.9997624193
 C         -2.8261681331       -0.6190027876        1.7938172131
 O         -2.1345093498       -0.8058724191        2.8160632031
 O         -3.2822674945       -1.2900012908       -1.7417981437
 C         -1.3495990205       -2.0068736731        0.3956095792
 C         -0.1592468514       -1.1809800398       -0.0196417240
 C         -0.1927595556       -0.3863685262       -1.1616159520
 C          0.9119658612        0.3609821635       -1.5265615669
 C          2.0663966234        0.3373644506       -0.7630256936
 C          2.1101973788       -0.4500090687        0.3790958400
 C          1.0002377660       -1.2035419655        0.7408918529
 H          1.0340683141       -1.8067229136        1.6386739600
 N          3.2740306445       -0.4667163859        1.1651509022
 S          4.7476199292       -0.7477585490        0.4093470640
 O          4.5783891654       -1.5317889426       -0.7916360944
 O          5.5947654338       -1.3140013647        1.4357596138
 C          5.3398260567        0.8805026853        0.0010859625
 C          5.5150641535        1.7862276312        1.0289167497
 C          5.9821632899        3.0558868172        0.7293004335
 C          6.2666828470        3.3957339252       -0.5850554224
 C          6.0888257212        2.4738366826       -1.6052164427
 C          5.6215294318        1.2020047210       -1.3121796405
 H          5.4656321953        0.4537468979       -2.0731107818
 H          6.3118261121        2.7395695468       -2.6260875992
 H          6.6301533758        4.3847924757       -0.8153322510
 H          6.1221976351        3.7753597885        1.5199441938
 H          5.2873542524        1.4814888064        2.0368151865
 H          3.1904302632       -1.0173863851        2.0073669587
 H          2.9279953419        0.9208213770       -1.0435112047
 H          0.8738536546        0.9718162643       -2.4158637123
 H         -1.0911575373       -0.3688064146       -1.7597967012
 H         -1.1574591318       -2.3701690347        1.4178623284
 C         -1.5635924674       -3.2341364788       -0.4807235139
 C         -0.8870830212       -3.4521336079       -1.7971864810
 C         -0.4738935924       -4.2582221182       -0.6050964676
 H         -0.7364073063       -5.3045336782       -0.5647034377
 H          0.4804934602       -4.0253979234       -0.1553757479
 H         -1.4589169203       -3.9303297939       -2.5775779077
 H         -0.2068437139       -2.6972139821       -2.1582709438
 H         -2.5759170715       -3.6157629491       -0.3969300665
