  62
        -98.94291168
 C         -2.6412592246       -1.1894626043        0.2473917024
 C         -2.7672040333       -0.3275072668       -0.8688708987
 C         -3.7964037717        0.7185436042       -0.7620532482
 C         -4.5578148963        0.7946420724        0.3437245503
 C         -5.6008221662        1.8420814966        0.6016883693
 C         -5.0057638244        3.0496518824        1.3394662159
 C         -3.7180685533        3.5839712917        0.7123169625
 H         -3.4083448444        4.4529456423        1.2968252246
 H         -2.9323411626        2.8317190259        0.8147434251
 C         -3.8486582251        3.9819722895       -0.7645545326
 H         -4.9002060364        4.1153839149       -1.0210765503
 H         -3.3543421729        4.9443670433       -0.9129012117
 C         -3.2095553275        2.9977062857       -1.7460906121
 H         -2.1821536007        2.7876962415       -1.4372661668
 H         -3.1643335157        3.4774476977       -2.7275808946
 C         -3.9425048587        1.6617960925       -1.9233395601
 H         -4.9965126339        1.8460097574       -2.1402948693
 H         -3.4996151351        1.1510837334       -2.7834625835
 H         -5.7561575273        3.8418652753        1.3653472387
 H         -4.7878554798        2.7536721793        2.3681710763
 H         -6.0331689749        2.1583215922       -0.3455992935
 H         -6.3849236982        1.4006564807        1.2191017818
 O         -4.4261787008       -0.0629708019        1.3864562588
 C         -3.4687361146       -1.0601803191        1.3691560760
 O         -3.4547764971       -1.7687450083        2.3952245268
 H         -0.0459036249       -0.6985806617       -1.1634233038
 C          0.4355905177       -0.9936288961       -0.2427687124
 C         -0.2443143609       -1.8155183555        0.6446535059
 C          0.3851931442       -2.1767684481        1.8302324428
 C          1.6611552211       -1.7239863570        2.1165943964
 C          2.3328142779       -0.8995692664        1.2316436126
 C          1.7119943949       -0.5309664185        0.0453553721
 N          2.3705346787        0.3286446133       -0.8501931990
 S          3.9532925050       -0.0198924113       -1.2818062008
 O          4.1485149403        0.6212037202       -2.5637864393
 O          4.2195507480       -1.4388021383       -1.2264080657
 C          4.9271480839        0.8311741636       -0.0574963192
 C          5.8959361906        0.1467000670        0.6498489496
 C          6.6530263513        0.8335079331        1.5863677760
 C          6.4298156806        2.1855398185        1.7967129830
 C          5.4541799157        2.8589341688        1.0765294677
 C          4.6948021380        2.1785151066        0.1382087694
 H          3.9292558507        2.6651149451       -0.4430573260
 H          5.2829386089        3.9102620649        1.2433243884
 H          7.0193167105        2.7179973072        2.5263186844
 H          7.4119983857        0.3119058906        2.1470417990
 H          6.0301370631       -0.9057012456        0.4565517680
 H          1.8168228019        0.5602767706       -1.6626056168
 H          3.3263033357       -0.5431210336        1.4500626491
 H          2.1375624696       -2.0137056892        3.0407685948
 H         -0.1379556640       -2.8094887216        2.5326413346
 C         -1.6297070089       -2.3238634017        0.3210625814
 H         -1.9569715325       -2.9527249703        1.1596617704
 C         -1.6100010764       -3.1780176667       -0.9327800687
 C         -1.0741256064       -4.5742137120       -0.8507856111
 C         -2.5431276937       -4.3444100495       -1.0399979334
 H         -2.9828315444       -4.5656965079       -2.0009614978
 H         -3.2010460783       -4.5360521966       -0.2045908986
 H         -0.4999832669       -4.9548745154       -1.6817175919
 H         -0.7360601320       -4.9242994774        0.1128645350
 H         -1.4136779285       -2.6159468635       -1.8362279762
 O         -2.0689377869       -0.4028837481       -1.9167130912
