  62
        -98.94550027
 C         -2.6527925466       -1.0333416817        0.2576289715
 C         -2.4964888407       -0.2748417812       -0.9283281586
 C         -3.0699134018        1.0786044116       -0.9016995947
 C         -3.7044961596        1.5058154879        0.2050186326
 C         -4.2810254631        2.8793038194        0.3883067376
 C         -3.2556250911        3.8299385055        1.0220925535
 C         -1.8855902047        3.8051429004        0.3429710904
 H         -1.2529898803        4.5346910908        0.8540741668
 H         -1.4221354193        2.8265012565        0.4942024899
 C         -1.9149177317        4.1183742099       -1.1594329318
 H         -2.8523684532        4.6135110200       -1.4165037927
 H         -1.1045943871        4.8146306693       -1.3853089195
 C         -1.7180429762        2.9008183411       -2.0649331690
 H         -0.8256385041        2.3510110932       -1.7501894896
 H         -1.5347598173        3.2607375598       -3.0810610788
 C         -2.8989681660        1.9232695641       -2.1321866117
 H         -2.7033150320        1.2240541419       -2.9503079719
 H         -3.8165632283        2.4707591306       -2.3573084464
 H         -3.1225371255        3.5489610641        2.0694842132
 H         -3.6581754187        4.8438825551        0.9909231985
 H         -4.6013405613        3.2649418769       -0.5773186250
 H         -5.1479535051        2.8039429765        1.0467996380
 O         -3.8477046956        0.7420183092        1.3189316572
 C         -3.3029793319       -0.5310930143        1.3833125454
 O         -3.4590011261       -1.1030518737        2.4821684369
 O         -1.9090531443       -0.7030782782       -1.9549932250
 C         -2.0363655260       -2.4185762085        0.3522461621
 C         -0.5464239843       -2.3039700520        0.1352116510
 C          0.1693572017       -3.0893265682       -0.7575516368
 C          1.5281616215       -2.8881662091       -0.9331203034
 C          2.2007244013       -1.9099670681       -0.2242497898
 C          1.4961686787       -1.1276882439        0.6818225896
 C          0.1389542437       -1.3358570201        0.8598072636
 H         -0.4101189864       -0.7187658378        1.5625559798
 N          2.1739198743       -0.1252240897        1.4091216194
 S          2.8353157473        1.1191154192        0.4848773262
 O          2.9344177510        2.2485047718        1.3847292519
 O          2.0866524527        1.3318294213       -0.7321675991
 C          4.4712892163        0.5264253073        0.1113528164
 C          4.8643522646        0.3629678837       -1.2022115118
 C          6.1430013465       -0.1047088981       -1.4644482872
 C          6.9994959305       -0.3989004322       -0.4144977790
 C          6.5894163142       -0.2267476953        0.8994619545
 C          5.3134222781        0.2415686658        1.1685957400
 H          4.9545929533        0.3931188508        2.1728822802
 H          7.2583254278       -0.4567379906        1.7130001431
 H          7.9926974611       -0.7648773927       -0.6215381667
 H          6.4636293416       -0.2390940524       -2.4850150247
 H          4.1601809532        0.5972261336       -1.9846358668
 H          1.6070938221        0.2754095288        2.1440301510
 H          3.2564726598       -1.7452081039       -0.3657043757
 H          2.0701022090       -3.4996725825       -1.6382083638
 H         -0.3391256162       -3.8488310178       -1.3281396318
 H         -2.2084862672       -2.7599167552        1.3835886045
 C         -2.7218971728       -3.3744203396       -0.6003373258
 C         -2.7615390558       -4.8410528237       -0.2959618104
 C         -4.0072588480       -4.0168995160       -0.1767922133
 H         -4.7862570584       -4.1454209297       -0.9131029197
 H         -4.3761142893       -3.7819358010        0.8113005751
 H         -2.6886605392       -5.5400584610       -1.1152846362
 H         -2.2876007315       -5.1755864487        0.6143797393
 H         -2.6343323727       -3.0645608834       -1.6351004546
