  62
        -98.94409048
 C         -1.4686109926       -1.1808039585       -0.0113634598
 C         -2.5229170796       -0.7536728164        0.8245204722
 C         -3.0737049218        0.5854369910        0.5587119821
 C         -2.5511125723        1.3297394490       -0.4342631333
 C         -2.8577876856        2.7436142550       -0.8822742185
 C         -4.1445347642        3.4420123335       -0.4495089841
 C         -5.4273895849        2.8254022558       -1.0056250352
 H         -6.2763720863        3.3510406080       -0.5631865440
 H         -5.4556063437        2.9951285152       -2.0847795128
 C         -5.5930909555        1.3264280976       -0.7689026055
 H         -4.8117453677        0.7823636515       -1.3033164408
 H         -6.5506011753        1.0237419773       -1.2011363766
 C         -5.5861942889        0.8912904163        0.6953741206
 H         -6.3280915656        1.4653785085        1.2536335308
 H         -5.8836599802       -0.1602038617        0.7266918585
 C         -4.2312799210        1.0080781360        1.4168755127
 H         -4.0717457901        2.0114748855        1.8058213506
 H         -4.2432918328        0.3258638197        2.2722369874
 H         -4.0807492308        4.4675727851       -0.8236207106
 H         -4.1916064836        3.5060799479        0.6336880873
 H         -2.0048378736        3.3446282403       -0.5455820769
 H         -2.8107283788        2.7259308962       -1.9758712097
 O         -1.5318666928        0.8733488620       -1.2173728551
 C         -0.9583947434       -0.3684434401       -1.0210287408
 O         -0.0259382595       -0.6354654549       -1.8044477733
 H          0.3978203967       -0.5802078321        1.5897451809
 C          1.1080491999       -1.2855547040        1.1828867810
 C          0.6597701029       -2.3729344840        0.4437062584
 C          1.6014556639       -3.2648960356       -0.0551684585
 C          2.9529260858       -3.0544808612        0.1588563326
 C          3.3952846350       -1.9424374074        0.8516052611
 C          2.4604557569       -1.0504796591        1.3631747209
 N          2.8519745312        0.1185257768        2.0526870180
 S          2.5035370494        1.5701393994        1.2852096335
 O          3.0772302049        2.5917602262        2.1360275365
 O          1.0889579315        1.6699152158        1.0359945377
 C          3.4320482560        1.4809768088       -0.2356788880
 C          4.6905603595        2.0521302866       -0.2671158863
 C          5.4609863783        1.9194973682       -1.4103116968
 C          4.9663758477        1.2095525676       -2.4944552826
 C          3.7039369578        0.6397060995       -2.4444657993
 C          2.9234251750        0.7718348340       -1.3051831408
 H          1.9352980022        0.3403762575       -1.2520114440
 H          3.3111248319        0.0865732498       -3.2825189908
 H          5.5664976343        1.1002574107       -3.3840291987
 H          6.4418693371        2.3650548592       -1.4513122782
 H          5.0301111660        2.5963427085        0.5995164773
 H          3.8276551657        0.1205454648        2.3198811890
 H          4.4500574617       -1.7618147590        0.9948009689
 H          3.6715282265       -3.7557916047       -0.2366211772
 H          1.2761584842       -4.1241077616       -0.6187015628
 C         -0.8252535022       -2.5332820252        0.2284442806
 H         -1.2733434851       -2.9122446853        1.1596586526
 C         -1.1664964905       -3.4862857545       -0.8995522797
 C         -1.3190445600       -4.9541557304       -0.6367526611
 C         -2.5263619192       -4.1151158213       -0.9249201043
 H         -3.0240603795       -4.2309011006       -1.8760173786
 H         -3.1940804590       -3.8776242274       -0.1095460312
 H         -1.1744497332       -5.2990577066        0.3759026409
 H         -0.9901050992       -5.6504040466       -1.3934544736
 H         -0.7416555571       -3.1741042118       -1.8472583100
 O         -2.9787976799       -1.4573225292        1.7682851495
