  62
        -98.94120206
 C         -2.5539406793       -1.1293854106        0.4585023199
 C         -2.8278039292       -0.3180646113       -0.6696901406
 C         -3.2609736694        1.0558410888       -0.3778997416
 C         -3.3767622897        1.4736496795        0.8943985882
 C         -3.7839501100        2.8500757098        1.3437850072
 C         -2.6231536801        3.8542934999        1.3705833268
 C         -2.1409883899        4.3310175592       -0.0003729133
 H         -2.9934628798        4.6789208087       -0.5852024337
 H         -1.4890154401        5.1898281093        0.1708839263
 C         -1.3613149496        3.2791767088       -0.8023342825
 H         -1.0077375996        2.4887729292       -0.1342109920
 H         -0.4640574996        3.7329345686       -1.2322408626
 C         -2.1464384993        2.6525655980       -1.9550511823
 H         -2.3664271092        3.4168924275       -2.7042690128
 H         -1.5101839091        1.8974144477       -2.4249451017
 C         -3.4625381193        1.9812186680       -1.5400569022
 H         -4.2091691694        2.7374604881       -1.3000625428
 H         -3.8224357990        1.3856764875       -2.3828954519
 H         -1.7851135702        3.4062409004        1.9102023273
 H         -2.9583458804        4.7262192402        1.9371505162
 H         -4.5808401399        3.2282398393        0.7031169168
 H         -4.1718709102        2.7444861103        2.3591259072
 O         -3.1358222499        0.6556228602        1.9525074687
 C         -2.6884446496       -0.6398225198        1.7612872796
 O         -2.4615084098       -1.2621977192        2.8183150900
 H         -0.4983969989       -1.0505414514       -1.3086993397
 C          0.1137245710       -1.5930831309       -0.6026614992
 C         -0.4899742291       -2.4477451104        0.3101154412
 C          0.3181866408       -3.1339767498        1.2075512218
 C          1.6917902408       -2.9573384196        1.1966625219
 C          2.2842808108       -2.0817884401        0.3034461715
 C          1.4832611610       -1.3960610507       -0.5993113991
 N          2.0715791110       -0.4418639812       -1.4698492295
 S          2.3651509707        1.0202896493       -0.6730978404
 O          1.4160700104        1.2348990099        0.3967047593
 O          2.4160073007        2.0319731687       -1.7054736310
 C          3.9954375005        0.7689815699       -0.0058630398
 C          4.1652184403        0.6151237908        1.3556335003
 C          5.4412351302        0.3912858813        1.8495525007
 C          6.5172648004        0.3240873009        0.9775829610
 C          6.3295007207        0.4812183400       -0.3878388492
 C          5.0569056607        0.7056685095       -0.8877474996
 H          4.8638105209        0.8390291189       -1.9390674097
 H          7.1688378708        0.4285455797       -1.0623485790
 H          7.5082756803        0.1481001712        1.3651703013
 H          5.5886837900        0.2682315419        2.9104798508
 H          3.2975785301        0.6701565111        1.9939078401
 H          1.4828012312       -0.2476979118       -2.2697107898
 H          3.3504253008       -1.9222015399        0.3018817717
 H          2.3057570107       -3.4952463891        1.9025758124
 H         -0.1399797593       -3.7885790494        1.9344793921
 C         -1.9940028491       -2.5412495606        0.3580941209
 H         -2.2680170292       -3.0331815101        1.3043912212
 C         -2.5941373088       -3.3591310214       -0.7758543287
 C         -1.8145677184       -3.8060801520       -1.9728313883
 C         -2.2131226685       -4.8022506214       -0.9285869477
 H         -2.9850255484       -5.5197620317       -1.1612500375
 H         -1.4376031786       -5.1797068709       -0.2791814374
 H         -0.7744687485       -3.5276054219       -2.0403051182
 H         -2.3237618882       -3.8138515527       -2.9244375184
 H         -3.6354170388       -3.1092904216       -0.9486041991
 O         -2.7139600089       -0.6925639521       -1.8667356804
