  62
        -98.94904248
 C          0.8699222243        1.3581503153        0.2297818511
 C          1.4378344417        0.2925232981        0.9647200159
 C          2.2765274037       -0.6397617004        0.2002660101
 C          2.3957850679       -0.4750204778       -1.1299657443
 C          3.2271926298       -1.3449944405       -2.0278103822
 C          4.6483033813       -0.7875737148       -2.1880592425
 C          5.3217267538       -0.4320399952       -0.8625147461
 H          6.3292136543       -0.0798584255       -1.0939273399
 H          4.7857880772        0.4028570676       -0.4053117901
 C          5.4018342644       -1.5927128905        0.1388118603
 H          5.2553539879       -2.5402600247       -0.3808145842
 H          6.4040333619       -1.6119689295        0.5719711808
 C          4.4150960074       -1.4940791245        1.3035084349
 H          4.7065193788       -2.2300832802        2.0574229461
 H          4.4914335414       -0.5058604539        1.7635601428
 C          2.9421456795       -1.7527822897        0.9605234713
 H          2.3944178530       -1.8314135942        1.9040375098
 H          2.8503154036       -2.6991182692        0.4225329287
 H          5.2508222827       -1.5265534995       -2.7195627886
 H          4.5981894312        0.1149299260       -2.8016309556
 H          3.2646939629       -2.3520921545       -1.6161126533
 H          2.7439490963       -1.3829786355       -3.0061104591
 O          1.8037533258        0.5393659751       -1.8094194732
 C          1.0286010556        1.4808936963       -1.1513074519
 O          0.5557076348        2.3664073689       -1.8895962490
 O          1.2474356102        0.1245276763        2.2000032754
 C         -0.0246074949        2.3525119369        0.9485702251
 C         -1.4068304416        2.2983850022        0.3462287007
 C         -2.1546504883        3.4227240690        0.0233865558
 C         -3.3941704864        3.2869632743       -0.5784465526
 C         -3.9021483016        2.0384133653       -0.8856373033
 C         -3.1677380192        0.9062343718       -0.5498542009
 C         -1.9490510081        1.0449497206        0.0907710451
 H         -1.3838574171        0.1620980664        0.3523798474
 N         -3.6454880153       -0.3816582569       -0.8323049648
 S         -2.5690107612       -1.6083105720       -1.2031293100
 O         -1.4074378016       -1.1306098980       -1.9167425337
 O         -3.3793534967       -2.5876041769       -1.8995715732
 C         -2.1078395822       -2.2827315869        0.3777360642
 C         -3.0960970243       -2.4938688018        1.3190691801
 C         -2.7502167919       -3.0572440395        2.5364466662
 C         -1.4320024650       -3.4076262263        2.7863121765
 C         -0.4535521129       -3.1960613796        1.8280180724
 C         -0.7914126890       -2.6251754808        0.6113380654
 H         -0.0560454823       -2.4232461595       -0.1531088184
 H          0.5715460289       -3.4662890315        2.0228736649
 H         -1.1623424383       -3.8467086274        3.7338222878
 H         -3.5076025338       -3.2215568920        3.2858737098
 H         -4.1092668697       -2.2122710657        1.0859804803
 H         -4.4767733144       -0.4173651330       -1.4040568434
 H         -4.8531278084        1.9363000181       -1.3857432581
 H         -3.9635446804        4.1683559292       -0.8320250069
 H         -1.7617196477        4.4053136920        0.2269086966
 H         -0.0833331704        1.9969310968        1.9883074077
 C          0.5892717074        3.7363543239        0.9372394822
 C          0.3061856568        4.6997098497        2.0501513891
 C          1.6573822135        4.0625297353        1.9363838020
 H          2.4919241841        4.6696556937        1.6190974431
 H          1.9225695916        3.2923583733        2.6458791397
 H          0.2149367382        5.7488560275        1.8126913122
 H         -0.3439490775        4.3676099943        2.8451342581
 H          0.7056339244        4.1292584475       -0.0667818099
