  62
        -98.93964948
 C          1.3586625256        1.3106914485        0.5506651367
 C          1.6572240878        0.4382275076       -0.5227384426
 C          2.4260651950       -0.7739323480       -0.1811164960
 C          2.7139821746       -1.0339097069        1.1051799192
 C          3.4248890518       -2.2295680075        1.6901960241
 C          4.6619494579       -2.7526663158        0.9491363051
 C          5.5156510789       -1.6696587121        0.2737497267
 H          5.1971033395       -0.6803621278        0.6070134626
 H          6.5560165945       -1.7959801206        0.5792094318
 C          5.4629750958       -1.7346897004       -1.2543510690
 H          6.3337927338       -1.2121077299       -1.6574315954
 H          5.5379084782       -2.7795493998       -1.5634164639
 C          4.2236499110       -1.1098426612       -1.8935428746
 H          4.2624602165       -1.3116180491       -2.9665682644
 H          4.2529845385       -0.0237897387       -1.7706383576
 C          2.8739087251       -1.6059063138       -1.3483606021
 H          2.9154556400       -2.6646185912       -1.1046319276
 H          2.1222039148       -1.4501444002       -2.1261485427
 H          4.3590906651       -3.4849943880        0.2022665936
 H          5.2657235166       -3.2871269458        1.6846917822
 H          3.7072647682       -1.9253727672        2.7011845849
 H          2.7000363016       -3.0430859717        1.7932573801
 O          2.3289366801       -0.2038798119        2.1179773010
 C          1.6661345058        0.9848046101        1.8701681419
 O          1.3970736861        1.6463432114        2.8951602037
 O          1.3040310412        0.6492827379       -1.7094606937
 C          0.6063634859        2.6085414488        0.3025432278
 C         -0.7983394600        2.2644229771       -0.1296716433
 C         -1.3379809361        2.5916404053       -1.3651589277
 C         -2.6182696136        2.1814138484       -1.6997327361
 C         -3.3836353495        1.4447472401       -0.8149965332
 C         -2.8539909029        1.1213301810        0.4283246051
 C         -1.5737260535        1.5303657879        0.7608194335
 H         -1.1577332853        1.2716548181        1.7270846534
 N         -3.6191373756        0.3548138087        1.3319761589
 S         -4.1678067557       -1.1145320082        0.7406114649
 O         -5.3540453370       -0.8955954243       -0.0478386042
 O         -4.3284764235       -1.9624007017        1.9009247291
 C         -2.8491826390       -1.7149756876       -0.2999676058
 C         -1.6496499005       -2.0460499982        0.2985403774
 C         -0.6022675313       -2.4831961795       -0.4944342029
 C         -0.7695084845       -2.5750290306       -1.8673975250
 C         -1.9776307563       -2.2340686897       -2.4539086921
 C         -3.0296586458       -1.7971863215       -1.6650912906
 H         -3.9857002314       -1.5225582073       -2.0797823413
 H         -2.1007612145       -2.3029572474       -3.5226279842
 H          0.0497650800       -2.9134243481       -2.4814377173
 H          0.3427864233       -2.7374141306       -0.0414533513
 H         -1.5514159061       -1.9677026110        1.3703616897
 H         -3.1611077409        0.2203865819        2.2222815329
 H         -4.3778456490        1.1101727740       -1.0632698548
 H         -3.0238186659        2.4363366027       -2.6667299311
 H         -0.7530659394        3.1552925422       -2.0724227819
 H          0.5448669034        3.1130255197        1.2774202717
 C          1.3513124339        3.5021787994       -0.6642380048
 C          1.0759238327        4.9748123781       -0.6758369921
 C          2.3728284971        4.4589163450       -0.1302715603
 H          3.2749031626        4.6218671759       -0.7007955638
 H          2.5244945897        4.4822892807        0.9394355840
 H          1.0891835131        5.4955849409       -1.6211035050
 H          0.3458953947        5.3521055906        0.0243590817
 H          1.5704378696        3.0151798182       -1.6064219101
