  62
        -98.94379256
 C          1.9029601762        1.2553893269        0.3463486120
 C          1.9264520342        0.1984358613       -0.5958691218
 C          3.2600401461       -0.3098292094       -0.9503978798
 C          4.3506433091        0.2545844931       -0.4005993904
 C          5.7610686232       -0.2045359958       -0.6288409355
 C          6.1818987818       -1.2442528688        0.4194239122
 C          5.1719081162       -2.3764919547        0.6073975067
 H          5.5872947583       -3.0629423790        1.3485119920
 H          4.2511555733       -1.9678503641        1.0303525903
 C          4.8384950054       -3.1501156868       -0.6759142480
 H          5.6082876223       -2.9700143615       -1.4272729393
 H          4.8480389790       -4.2190604383       -0.4523744941
 C          3.4653250397       -2.8317072371       -1.2704841003
 H          3.2455375626       -3.5805695873       -2.0361906792
 H          2.6998428857       -2.9236563537       -0.4954276415
 C          3.3260873780       -1.4515909427       -1.9252825966
 H          2.3767265465       -1.4379266008       -2.4682641875
 H          4.1350033724       -1.3016532202       -2.6430539788
 H          7.1469231298       -1.6607983848        0.1250886885
 H          6.3096627326       -0.7370426660        1.3786940321
 H          6.4215366303        0.6610195640       -0.5539443206
 H          5.8440449180       -0.6269032366       -1.6283108333
 O          4.2882486989        1.2890825262        0.4768086165
 C          3.0675349509        1.8043192381        0.8821060359
 O          3.1492283402        2.7345207698        1.7104564441
 O          0.8934418496       -0.2982120024       -1.1117423794
 C          0.5787031533        1.8416826026        0.7958258149
 C         -0.3195115202        0.7849828355        1.3936980279
 C          0.2242666610       -0.2835546077        2.0998419847
 C         -0.5841733439       -1.2690500090        2.6348624431
 C         -1.9593804869       -1.2034399400        2.4946771372
 C         -2.5152362452       -0.1270560532        1.8195776672
 C         -1.7004451455        0.8574241613        1.2743232290
 H         -2.1519933527        1.6832592047        0.7458222984
 N         -3.9216012255       -0.0644518496        1.6788781434
 S         -4.5749649249       -1.1146728090        0.5451599650
 O         -6.0036305352       -0.8993416277        0.5807511623
 O         -4.1175085862       -2.4483556638        0.8351228708
 C         -3.9145232478       -0.5350235836       -1.0062529390
 C         -2.5995174890       -0.8183574372       -1.3159497059
 C         -2.0481264872       -0.2700049342       -2.4632721385
 C         -2.8199232408        0.5424226033       -3.2794428417
 C         -4.1431878113        0.8100639450       -2.9597854079
 C         -4.6951898515        0.2765031438       -1.8068042386
 H         -5.7154253119        0.4658945482       -1.5138367695
 H         -4.7403729919        1.4397632476       -3.5998123091
 H         -2.3850604999        0.9711652274       -4.1690000670
 H         -1.0102553444       -0.4635349241       -2.6829375845
 H         -2.0153453164       -1.4502749161       -0.6669025838
 H         -4.2601133338        0.8688635767        1.4861070462
 H         -2.6046369261       -1.9732957231        2.8847159272
 H         -0.1393557276       -2.0970512896        3.1664172233
 H          1.2981436748       -0.3414629276        2.2160180664
 H          0.8213667880        2.5692432695        1.5849517456
 C         -0.0763711418        2.5747521544       -0.3599918820
 C         -0.8673031684        3.8258489253       -0.1247373068
 C          0.4782224768        3.9014108254       -0.7798973830
 H          0.5301459687        4.1303269375       -1.8334981351
 H          1.3059048323        4.2940556057       -0.2066811010
 H         -1.7409185812        4.0056938541       -0.7336013100
 H         -0.9525755720        4.1845611164        0.8902590269
 H         -0.4078590625        1.9001413993       -1.1412228774
