  62
        -98.94591198
 C         -1.1102877098       -1.0716787966       -0.4656992082
 C         -2.1488833635       -1.2678834358        0.4808020491
 C         -2.9141881765       -0.0794340957        0.8750923858
 C         -2.5691121194        1.1176791778        0.3683382708
 C         -3.2787262463        2.4091348419        0.6540863155
 C         -4.3909869912        2.6728483423       -0.3706351530
 C         -5.3219603932        1.4804462673       -0.5896805946
 H         -6.0844111833        1.7902988264       -1.3074847366
 H         -4.7564186980        0.6675439407       -1.0505427067
 C         -6.0009454349        0.9632614021        0.6861257099
 H         -5.9487184494        1.7219260508        1.4678840509
 H         -7.0578071624        0.7878323911        0.4745272886
 C         -5.4296671192       -0.3519774220        1.2194351699
 H         -5.3927662355       -1.0890586133        0.4133801681
 H         -6.1127947311       -0.7350398380        1.9822429939
 C         -4.0367104022       -0.2665091009        1.8567350194
 H         -4.0232131075        0.5237643722        2.6107851102
 H         -3.8398557875       -1.2191796525        2.3574999242
 H         -4.9716538581        3.5341521286       -0.0352506716
 H         -3.9275361410        2.9254944880       -1.3268909572
 H         -3.6951343117        2.3720714214        1.6590846714
 H         -2.5497632081        3.2201020522        0.6059520806
 O         -1.5522452877        1.2770255937       -0.5118820274
 C         -0.8002587699        0.1972296929       -0.9565415615
 O          0.0853152149        0.5198425711       -1.7720669390
 H          1.5224659961       -0.4012465819       -0.2356885185
 C          1.7415480018       -1.3441189172        0.2375950334
 C          0.9168872024       -2.4372155423        0.0182332346
 C          1.2377539169       -3.6458454989        0.6253999208
 C          2.3486214706       -3.7487932181        1.4437899954
 C          3.1412888277       -2.6435616713        1.6971644662
 C          2.8272941936       -1.4312081921        1.0947057316
 N          3.5867190211       -0.2754216914        1.3318378032
 S          2.7842257451        1.1882318843        1.5037868244
 O          3.6846890884        1.9946731776        2.3058714298
 O          1.4574659338        1.0091162778        2.0497592866
 C          2.7170267081        1.8933374520       -0.1268299468
 C          1.6750865065        2.7447011603       -0.4304010370
 C          1.6440574229        3.3499194288       -1.6757159796
 C          2.6519462676        3.0936164354       -2.5905885387
 C          3.6927354021        2.2360412513       -2.2697435664
 C          3.7318160265        1.6305932403       -1.0245440039
 H          4.5210827594        0.9527061862       -0.7444481874
 H          4.4712120684        2.0337684052       -2.9879654146
 H          2.6208531518        3.5601705625       -3.5627589876
 H          0.8267879566        4.0060798613       -1.9290646886
 H          0.8986221765        2.8993533783        0.3028912703
 H          4.3224168590       -0.3779358084        2.0161929442
 H          3.9900337612       -2.7139022915        2.3603250729
 H          2.5877757046       -4.6933567439        1.9082771318
 H          0.5999977110       -4.5030956570        0.4687136379
 C         -0.3099180536       -2.3029746228       -0.8540342051
 H         -0.9655299952       -3.1577038266       -0.6363577827
 C          0.0793366961       -2.3567131519       -2.3185847323
 C          0.3460702320       -3.6862978135       -2.9555803974
 C         -0.8878025705       -2.9160311144       -3.3166903134
 H         -0.9462106312       -2.4534834547       -4.2902180181
 H         -1.8380203379       -3.2721367994       -2.9455968940
 H          0.2298892260       -4.5687396675       -2.3450765880
 H          1.1396199345       -3.7565148313       -3.6831980858
 H          0.6857914967       -1.5160448454       -2.6288253192
 O         -2.4283183930       -2.3972460483        0.9691731849
