  62
        -98.93802575
 C         -1.7746212453       -1.1270642679       -0.0192593915
 C         -2.2520414053        0.0378914344       -0.6603611447
 C         -3.7190443301        0.2047429736       -0.7291595294
 C         -4.5066909126       -0.7439161323       -0.1893563302
 C         -6.0096566573       -0.7695208381       -0.1034467483
 C         -6.5573890385        0.1721367653        0.9813981177
 C         -5.9040813297        1.5510083795        1.0267836755
 H         -6.2973709796        2.0761167219        1.9012836153
 H         -4.8289404791        1.4347191796        1.1757218573
 C         -6.1539871239        2.4301090603       -0.1962327411
 H         -7.2294255213        2.5774890824       -0.3183719642
 H         -5.7062876144        3.4059923125        0.0087491230
 C         -5.5813320413        1.9147495871       -1.5181488906
 H         -5.6200242810        2.7413089341       -2.2338760633
 H         -6.1988096937        1.1213888034       -1.9307045925
 C         -4.1243106587        1.4675774147       -1.4504237152
 H         -3.7467974125        1.3548479457       -2.4742790366
 H         -3.5214321384        2.2709224583       -1.0112370837
 H         -6.3974094397       -0.3029819596        1.9522716089
 H         -7.6329327573        0.2810786583        0.8323923921
 H         -6.2914783472       -1.7935527255        0.1512666149
 H         -6.4425157896       -0.5387108085       -1.0722329268
 O         -3.9976909884       -1.8511017954        0.4238996237
 C         -2.6395439211       -2.0739082188        0.5275440278
 O         -2.3294390088       -3.1273413045        1.1200659158
 O         -1.4954971349        0.9144342874       -1.1561324780
 C         -0.2812158952       -1.3824085119        0.0908164254
 C          0.3738065227       -0.2395663275        0.8256299606
 C         -0.0907430441        0.0755223865        2.1011485402
 C          0.4537519462        1.1257034724        2.8127181003
 C          1.4805537825        1.8797243687        2.2713387507
 C          1.9536565369        1.5718731565        1.0015734758
 C          1.4086375673        0.5097415512        0.2899732099
 H          1.7794315805        0.3067553373       -0.7003770380
 N          2.9827216026        2.3295151090        0.4328498260
 S          4.0278721108        1.7181959606       -0.7048664290
 O          5.1658468010        2.6124214740       -0.6532262210
 O          3.3854789047        1.6010046899       -1.9898555020
 C          4.5160401661        0.1012370941       -0.1259817719
 C          4.6759686547       -0.9096740798       -1.0514180382
 C          5.0874846771       -2.1606004925       -0.6200524819
 C          5.3307892619       -2.3785992135        0.7267367104
 C          5.1699612623       -1.3522583511        1.6447156144
 C          4.7631244058       -0.0984351367        1.2176982967
 H          4.6356448285        0.7143121659        1.9135700262
 H          5.3598818273       -1.5246329672        2.6918589453
 H          5.6472175986       -3.3535509947        1.0624158631
 H          5.2132425268       -2.9588987910       -1.3338739660
 H          4.4693309576       -0.6966301991       -2.0880538866
 H          3.4068443863        3.0228815317        1.0292535002
 H          1.9025362737        2.7076314483        2.8202777143
 H          0.0785811978        1.3608558539        3.7973306437
 H         -0.8961786876       -0.5128637290        2.5199318187
 H         -0.1756865908       -2.2883096436        0.7052466145
 C          0.3052282435       -1.6539676649       -1.2775954347
 C          1.5411493273       -2.4895200879       -1.4121205645
 C          0.2140079694       -3.0407223334       -1.8371892432
 H          0.0165305323       -3.1595491775       -2.8920255702
 H         -0.2525404487       -3.7935334320       -1.2183891468
 H          2.2545402533       -2.2269865676       -2.1780651996
 H          1.9870725868       -2.8731737562       -0.5070223901
 H          0.1691725995       -0.8271612372       -1.9657975423
