  62
        -98.94491467
 C         -1.9554162195       -0.8528683968        0.0732292999
 C         -2.2563024387        0.1107529781        1.0629978975
 C         -2.3696634451        1.4979508276        0.5967709202
 C         -2.1488872615        1.7741270670       -0.7016828909
 C         -2.2659587720        3.1376383584       -1.3186401705
 C         -3.6840783510        3.3903331563       -1.8499849376
 C         -4.7872825953        3.0574316582       -0.8454979318
 H         -5.7414531326        3.2990821619       -1.3184260085
 H         -4.7834102102        1.9813739588       -0.6577662574
 C         -4.6747163860        3.8044503143        0.4907439449
 H         -5.6620412571        4.1806143119        0.7662988413
 H         -4.0177374024        4.6675093343        0.3782385463
 C         -4.1844787961        2.9455052459        1.6578515773
 H         -4.3469313918        3.5036074780        2.5836834001
 H         -4.7810841339        2.0317994320        1.7167658825
 C         -2.7029343419        2.5488682828        1.6183104697
 H         -2.0843657940        3.4370703599        1.4714665874
 H         -2.4465763583        2.1126890860        2.5885354335
 H         -3.8334505057        2.7749343114       -2.7400145851
 H         -3.7601913902        4.4387497397       -2.1437246788
 H         -2.0037594198        3.8883314207       -0.5753554739
 H         -1.5565041801        3.1980317708       -2.1458798825
 O         -1.8418654239        0.8244857819       -1.6215475689
 C         -1.7266348108       -0.5076740441       -1.2589236799
 O         -1.4379016025       -1.2743604290       -2.1982742937
 H          0.4641165196       -0.9248535516        0.8825869600
 C          0.6707102767       -1.8805888281        0.4214840878
 C         -0.3760742845       -2.7509410368        0.1439794213
 C         -0.0814204602       -3.9797423965       -0.4320482432
 C          1.2252705317       -4.3057926888       -0.7529567135
 C          2.2570518187       -3.4160964825       -0.5197022976
 C          1.9744759485       -2.1918645575        0.0769616656
 N          2.9989296703       -1.2685334238        0.3547661709
 S          2.6367416056        0.3776617171        0.2326943225
 O          2.0212927519        0.8097306175        1.4637153827
 O          1.9044392140        0.6496681462       -0.9838645654
 C          4.2866068264        1.0481431036        0.1290221094
 C          5.0287471529        1.1573935788        1.2901494029
 C          6.3249238866        1.6414848649        1.2134844704
 C          6.8548237810        2.0058601072       -0.0156294246
 C          6.0972874445        1.8932022013       -1.1716583852
 C          4.8005560158        1.4077626260       -1.1022519970
 H          4.1708688728        1.3076825794       -1.9720086034
 H          6.5099958723        2.1802416495       -2.1253431918
 H          7.8636998256        2.3827416139       -0.0727314330
 H          6.9157725896        1.7329349448        2.1104672862
 H          4.5698109680        0.8704247645        2.2217879296
 H          3.8605909029       -1.4887224509       -0.1269709259
 H          3.2713037417       -3.6622907398       -0.7948589074
 H          1.4399846004       -5.2604156759       -1.2088828323
 H         -0.8761585269       -4.6761814949       -0.6436992719
 C         -1.7767294815       -2.3029456146        0.4839363443
 H         -1.8872840469       -2.3139304192        1.5792152338
 C         -2.8565258518       -3.1719552812       -0.1261528207
 C         -3.3299672615       -4.4038990024        0.5843190436
 C         -4.2118762955       -3.1948858179        0.5126027475
 H         -5.0821497745       -3.2247207192       -0.1256067763
 H         -4.3458187395       -2.6030787319        1.4065028497
 H         -3.5991639894       -5.2672443821       -0.0052054059
 H         -2.8724869037       -4.6400430641        1.5331130426
 H         -2.8123656771       -3.1857419200       -1.2095307762
 O         -2.4216008788       -0.1775050936        2.2809176403
