  62
        -98.94265531
 C          2.1441492539        0.8849609940        0.1620045347
 C          2.6591434227        0.0074480140        1.1446070898
 C          3.0223988400       -1.3373553149        0.6795824907
 C          2.8098210167       -1.6666448432       -0.6079366677
 C          3.1678115543       -2.9874243095       -1.2239977461
 C          4.5848680741       -2.9611260673       -1.8138410792
 C          5.6416761701       -2.4108159716       -0.8560320614
 H          6.6050193921       -2.4699284779       -1.3668786951
 H          5.4388779326       -1.3532055827       -0.6726693848
 C          5.7280656103       -3.1502758123        0.4863995116
 H          5.2473452852       -4.1255968199        0.4033559375
 H          6.7796247643       -3.3256423157        0.7224431695
 C          5.1274294984       -2.3885751740        1.6692071716
 H          5.5371770328       -1.3759040153        1.6986691814
 H          5.4335478149       -2.8929645450        2.5894743874
 C          3.5968764195       -2.2892493303        1.6912796458
 H          3.1608702998       -3.2837063746        1.5747933808
 H          3.3031792211       -1.8977774045        2.6698413492
 H          4.8527563342       -3.9765225609       -2.1113481612
 H          4.5742474764       -2.3357700721       -2.7095059981
 H          3.0911151923       -3.7670205777       -0.4683548199
 H          2.4524295339       -3.1971192233       -2.0213225023
 O          2.2793519534       -0.8078817624       -1.5162439706
 C          1.9318010698        0.4860683817       -1.1581681807
 O          1.4555706101        1.1669619614       -2.0863140642
 O          2.7967706215        0.3307623710        2.3561681279
 C          1.7288355067        2.2874440068        0.5698847172
 C          0.2550291671        2.4707376943        0.3013179562
 C         -0.2828790503        3.5860278162       -0.3266520098
 C         -1.6411183154        3.6598413121       -0.5869213449
 C         -2.4909536087        2.6305002884       -0.2266045658
 C         -1.9649754785        1.5199304620        0.4177464073
 C         -0.6087466239        1.4525925926        0.6861531301
 H         -0.2055780694        0.5755893320        1.1799460410
 N         -2.8273692614        0.4513601333        0.7738816775
 S         -3.2706370672       -0.5513457106       -0.5176690655
 O         -2.3715326659       -1.6874987123       -0.5688454388
 O         -3.3889231439        0.2416161574       -1.7135011181
 C         -4.8855798827       -1.0897777224        0.0113510983
 C         -5.9456209805       -0.2170864844       -0.1397342311
 C         -7.2010128303       -0.6042201028        0.2999911378
 C         -7.3741392261       -1.8507994343        0.8831858193
 C         -6.3006555229       -2.7161210253        1.0275801055
 C         -5.0419135400       -2.3335310067        0.5903875871
 H         -4.1805077531       -2.9762104730        0.6756896438
 H         -6.4379229255       -3.6856678740        1.4787654317
 H         -8.3521136531       -2.1505672029        1.2252457578
 H         -8.0383285320        0.0654755703        0.1875785275
 H         -5.7648163563        0.7369382283       -0.6064491263
 H         -2.4002840732       -0.1447310910        1.4719513634
 H         -3.5440414367        2.6657019180       -0.4508050119
 H         -2.0402962663        4.5289764027       -1.0873062699
 H          0.3646797920        4.3927228878       -0.6292208092
 H          1.8924510356        2.3382274856        1.6569383586
 C          2.6033134020        3.3222374848       -0.1054703331
 C          2.8704679500        4.6380557956        0.5605422770
 C          3.9569745687        3.6104986001        0.4690388408
 H          4.7784356423        3.7835152025       -0.2098357553
 H          4.2370791330        3.0783092416        1.3664876883
 H          2.9493228899        5.5207699152       -0.0557569713
 H          2.4177150039        4.8106956080        1.5250484342
 H          2.5117744272        3.3000741588       -1.1857597692
