  62
        -98.93909257
 C         -1.9746826096       -0.8960569982        0.0975096532
 C         -2.2532253172        0.0546048024        1.1036962316
 C         -2.3416353218        1.4593456824        0.6731248387
 C         -2.1310732691        1.7585348071       -0.6205743073
 C         -2.2092573940        3.1136745165       -1.2684191697
 C         -3.6130145138        3.3631358026       -1.8461354924
 C         -4.6170172325        3.9633593916       -0.8626081588
 H         -4.3471754710        5.0027992706       -0.6653235394
 H         -5.5921019676        3.9645874951       -1.3548259672
 C         -4.7426409556        3.2291987525        0.4748395320
 H         -4.7538631642        2.1513090166        0.3037154107
 H         -5.7047602760        3.4977133503        0.9151492400
 C         -3.6263751185        3.5868761354        1.4675179040
 H         -4.0698902567        3.8685016957        2.4247233267
 H         -3.0926556765        4.4645289434        1.1033973986
 C         -2.6239805636        2.4601987441        1.7605712082
 H         -1.6716482767        2.8976132323        2.0809898905
 H         -2.9864402584        1.8590834137        2.6007581157
 H         -3.9911932877        2.4102228263       -2.2248771898
 H         -3.5254445360        4.0417319898       -2.6969541930
 H         -1.4873973405        3.1040555845       -2.0879978527
 H         -1.9268909677        3.8913860533       -0.5648003504
 O         -1.8642654215        0.8107128158       -1.5607338743
 C         -1.7566492183       -0.5272352823       -1.2297755511
 O         -1.4868889432       -1.2772240207       -2.1880960991
 O         -2.4251113234       -0.2579297762        2.3152778694
 C         -1.8013992602       -2.3537145147        0.4824363697
 C         -0.3993697966       -2.7954847649        0.1386216558
 C         -0.1014136227       -4.0183982527       -0.4482136949
 C          1.2060231878       -4.3374353418       -0.7733794949
 C          2.2351772443       -3.4457338372       -0.5355933137
 C          1.9492764898       -2.2274643197        0.0713966281
 C          0.6452379485       -1.9245903672        0.4221835491
 H          0.4367588050       -0.9740158681        0.8928100185
 N          2.9688901888       -1.2992435853        0.3519214987
 S          2.5922038940        0.3438778704        0.2262208950
 O          1.9782280661        0.7747948838        1.4584627453
 O          1.8525572319        0.6048816402       -0.9880995830
 C          4.2342907920        1.0318145490        0.1134511079
 C          4.9779056270        1.1590497753        1.2717666429
 C          6.2667080243        1.6613889900        1.1884701534
 C          6.7878781459        2.0257779518       -0.0443482342
 C          6.0291179523        1.8944041488       -1.1975849072
 C          4.7397431564        1.3907614459       -1.1215313481
 H          4.1090627757        1.2766048108       -1.9888132195
 H          6.4349928818        2.1815654642       -2.1541277538
 H          7.7907419656        2.4175870973       -0.1065116067
 H          6.8583710135        1.7674919135        2.0832980705
 H          4.5254844684        0.8716646560        2.2064670796
 H          3.8313112508       -1.5134543496       -0.1312358266
 H          3.2496617513       -3.6860345144       -0.8150983569
 H          1.4233091874       -5.2877641801       -1.2369669326
 H         -0.8942139860       -4.7156180649       -0.6646261696
 H         -1.9157526375       -2.3848246560        1.5768601075
 C         -2.8785510955       -3.2114034519       -0.1477410745
 C         -3.3588747238       -4.4527819057        0.5413575960
 C         -4.2383260555       -3.2413797559        0.4812604016
 H         -5.1039936759       -3.2602888303       -0.1635637140
 H         -4.3776825298       -2.6624599265        1.3826947814
 H         -3.6252858914       -5.3070068371       -0.0625302073
 H         -2.9085389835       -4.7034206361        1.4898640872
 H         -2.8270455926       -3.2093465235       -1.2308322056
