  62
        -98.93759553
 C          1.7142774138        1.4424384089        0.3024771898
 C          1.8567041923        0.2038702576        0.9798542609
 C          3.1379426988       -0.5043765811        0.8225920461
 C          4.1044815306        0.0517696205        0.0725187171
 C          5.5142789224       -0.4278944307       -0.1715836738
 C          5.7347723850       -1.9294212172       -0.3865398703
 C          4.6174741445       -2.6374669636       -1.1657555175
 H          3.9429290324       -1.8990719544       -1.6027887097
 H          5.0603498393       -3.2020582901       -1.9882576111
 C          3.8141444750       -3.6126093629       -0.3030151464
 H          3.3051779099       -4.3230323646       -0.9586625083
 H          4.5055669058       -4.1814500541        0.3223784900
 C          2.7475060943       -2.9705685140        0.5824320465
 H          1.9493638398       -2.5643027210       -0.0449859279
 H          2.3099251406       -3.7581669100        1.2010822590
 C          3.2394163345       -1.8400817929        1.5023318084
 H          2.5693710747       -1.7881872426        2.3651298983
 H          4.2471750267       -2.0339357979        1.8617143646
 H          6.6787351841       -2.0334960520       -0.9245735808
 H          5.8676819461       -2.4214918111        0.5757764458
 H          5.8507826143        0.1202346158       -1.0552299384
 H          6.1321662892       -0.0924494882        0.6670056664
 O          3.9200519240        1.2340933434       -0.5768125305
 C          2.7319120467        1.9460941898       -0.5066694746
 O          2.7361266685        2.9785601249       -1.2055139915
 O          0.9512870394       -0.2831034558        1.7081103059
 C          0.3978593767        2.1719231438        0.5002545246
 C         -0.6046240152        1.8312421457       -0.5769676451
 C         -0.2966862974        1.9649482258       -1.9265305755
 C         -1.2390700380        1.6556091582       -2.8901010263
 C         -2.4964137405        1.2024975056       -2.5302217054
 C         -2.8175789397        1.0742085207       -1.1836967929
 C         -1.8712600696        1.3942649684       -0.2193272957
 H         -2.1373190848        1.3018793575        0.8219330998
 N         -4.0956287722        0.6514070728       -0.7937889449
 S         -4.3392363267       -0.3460047984        0.5256240122
 O         -5.7159967957       -0.7690687900        0.3942606627
 O         -4.0026861908        0.3511601858        1.7405046384
 C         -3.2593229779       -1.7406965704        0.2693345579
 C         -2.0125513102       -1.7785762938        0.8580519281
 C         -1.1856564347       -2.8615141586        0.6041699391
 C         -1.6122586191       -3.8807662277       -0.2315322254
 C         -2.8705705375       -3.8299895263       -0.8138590397
 C         -3.7015263384       -2.7508206230       -0.5645912545
 H         -4.6918544008       -2.6806258231       -0.9847217730
 H         -3.2034638667       -4.6265674252       -1.4597050596
 H         -0.9624006489       -4.7195349838       -0.4260621393
 H         -0.2098456466       -2.8821852039        1.0620913985
 H         -1.6846264911       -0.9801209818        1.5030264460
 H         -4.7097135215        0.4056750803       -1.5561746168
 H         -3.2280940473        0.9590533631       -3.2853806463
 H         -0.9901837427        1.7639293006       -3.9350446600
 H          0.6834022274        2.3176095016       -2.2100480308
 H         -0.0033361309        1.7932581939        1.4510441959
 C          0.5383197822        3.6777080264        0.6137306154
 C         -0.5387057928        4.4554827631        1.3059841244
 C          0.8038499441        4.2937962058        1.9527506646
 H          1.4609686707        5.1488465416        2.0042223242
 H          0.8831973959        3.6311885481        2.8025497247
 H         -0.8068534934        5.4241512124        0.9130632157
 H         -1.3710922343        3.9040646708        1.7178652471
 H          1.0144234713        4.1309771398       -0.2457627138
