  62
        -98.93138293
 C         -2.0527977773       -0.7799122773        0.5769820467
 C         -3.1500120615       -0.8226539282       -0.3139433776
 C         -4.1372025411        0.2715407191       -0.2031471427
 C         -3.9250646871        1.2645841985        0.6774654433
 C         -4.7770212043        2.4740698393        0.9711236313
 C         -5.3844120256        3.2090427012       -0.2336136145
 C         -6.8975816959        3.0227906270       -0.3622906425
 H         -7.3363560033        3.0503132025        0.6372896900
 H         -7.3066213623        3.8676737723       -0.9207632771
 C         -7.3380738379        1.7435531975       -1.0716414832
 H         -7.1176123593        1.8271626211       -2.1379462246
 H         -8.4229388149        1.6654984687       -0.9689494891
 C         -6.7017053769        0.4551896626       -0.5471353202
 H         -6.6467006548        0.4723098969        0.5407929362
 H         -7.3552957947       -0.3759573121       -0.8200954419
 C         -5.3122282888        0.1720514639       -1.1378620917
 H         -5.2762752582       -0.8532511555       -1.5182969953
 H         -5.1334493850        0.8187798656       -2.0012734500
 H         -4.8829446981        2.8984594969       -1.1487050262
 H         -5.1874161416        4.2745662743       -0.1040900207
 H         -5.5704512162        2.1761581381        1.6615593264
 H         -4.1217984669        3.1497993984        1.5258658791
 O         -2.8354832261        1.2808006227        1.5000902926
 C         -1.8965373869        0.2690833240        1.4867951388
 O         -0.9835079836        0.4097266652        2.3269158346
 H          1.5645411754       -0.9591932245        0.8262733243
 C          1.3021529468       -1.1804466299       -0.1979188211
 C          0.0277484850       -1.6400164342       -0.5007240252
 C         -0.2952255062       -1.8958804825       -1.8294036731
 C          0.6404744145       -1.6904218437       -2.8264166564
 C          1.9086318314       -1.2289905384       -2.5220038005
 C          2.2427781645       -0.9729869307       -1.1969533074
 N          3.5408610215       -0.5472962942       -0.8628725822
 S          3.7559665995        0.5320313798        0.4171351574
 O          3.6512158367       -0.1914666340        1.6588520077
 O          2.8886701857        1.6779183712        0.2533246993
 C          5.4565355937        0.9942863153        0.1416210699
 C          5.7488971454        2.1931179106       -0.4802740291
 C          7.0754437409        2.5217346757       -0.7130600753
 C          8.0810580870        1.6492916313       -0.3252274093
 C          7.7721308399        0.4496542233        0.2989873843
 C          6.4483455614        0.1158820130        0.5360589226
 H          6.1599079492       -0.7995104626        1.0256967523
 H          8.5567109109       -0.2248831657        0.6016041618
 H          9.1122240012        1.9072395278       -0.5079514371
 H          7.3185469440        3.4551176732       -1.1947113169
 H          4.9339785664        2.8428101613       -0.7568672964
 H          4.0689196749       -0.2519263008       -1.6735264788
 H          2.6367412321       -1.0690223047       -3.3028509306
 H          0.3772437480       -1.8870977834       -3.8548037136
 H         -1.2911809172       -2.2304336692       -2.0730982534
 C         -0.9690645912       -1.8467202746        0.6152479420
 H         -0.4364353535       -1.6861124430        1.5631051123
 C         -1.5221448107       -3.2587039563        0.6119921976
 C         -0.6510789629       -4.3744461900        1.1015655662
 C         -1.8264484142       -3.9272773925        1.9169201106
 H         -2.6907426085       -4.5715645221        1.9759861182
 H         -1.6366957901       -3.3670342552        2.8214785414
 H         -0.7058414026       -5.3286401193        0.6007468289
 H          0.3368450051       -4.1166908699        1.4538467350
 H         -2.1875183180       -3.4614428523       -0.2160484034
 O         -3.3314843554       -1.7295466752       -1.1687380986
