  62
        -98.93522264
 C         -2.3447569297       -1.1024970000       -0.5174412201
 C         -3.3281261896       -0.5745079896        0.3568926197
 C         -3.8437106296        0.7770362303        0.0709932293
 C         -3.3634134795        1.4344051699       -1.0004547610
 C         -3.6923165094        2.8266101698       -1.4692897514
 C         -3.0091439694        3.9092286800       -0.6186634218
 C         -3.0786293994        3.6798859305        0.8889296583
 H         -2.6116522894        2.7217843406        1.1272454186
 H         -2.4767122793        4.4558723806        1.3697074180
 C         -4.4798929394        3.7319153508        1.4938410783
 H         -4.3660058494        3.6466707612        2.5775428483
 H         -4.9238287093        4.7072026908        1.2824160179
 C         -5.4524071895        2.6439805207        1.0325531286
 H         -5.8510451294        2.8656515604        0.0463217786
 H         -6.3022993695        2.6559054710        1.7210433086
 C         -4.8865020895        1.2278530707        1.0651599591
 H         -5.7161147296        0.5177061807        0.9642983293
 H         -4.4611542595        1.0338248810        2.0565111392
 H         -3.4555870793        4.8743777500       -0.8640134321
 H         -1.9528917694        3.9429490099       -0.8982765018
 H         -3.3244742094        2.9072483394       -2.4945693314
 H         -4.7682578094        2.9712930698       -1.4898141315
 O         -2.4227650095        0.8874963796       -1.8194576408
 C         -1.8780546196       -0.3643318404       -1.6040013403
 O         -1.0143704996       -0.6789039507       -2.4495711302
 O         -3.7665943897       -1.2121737393        1.3524305499
 C         -1.8071961497       -2.4844481399       -0.1812634696
 C         -0.5069115197       -2.3623848397        0.5774932403
 C         -0.3978940998       -2.7985012593        1.8924255905
 C          0.7848743802       -2.6371678491        2.5936870104
 C          1.8793846803       -2.0317615094        2.0023686902
 C          1.7761951603       -1.5867991598        0.6913498801
 C          0.5971169403       -1.7658039200       -0.0151653599
 H          0.5228387103       -1.4062124103       -1.0312104400
 N          2.8813585803       -0.9370807201        0.0839949399
 S          3.1767528404        0.6178078301        0.6855528294
 O          3.3342801804        0.5313880806        2.1148297894
 O          2.1669258705        1.5416792600        0.2097733890
 C          4.7467363105        0.9770046797       -0.0761407508
 C          5.8830820904        0.4027035599        0.4603335294
 C          7.1058656204        0.6487570996       -0.1427863006
 C          7.1713460405        1.4595106692       -1.2664192709
 C          6.0219326205        2.0285416391       -1.7931723911
 C          4.7951893005        1.7848944494       -1.1951787210
 H          3.8763895105        2.2106090993       -1.5665311112
 H          6.0749708906        2.6597378088       -2.6657053313
 H          8.1242537805        1.6509233190       -1.7339730210
 H          8.0021633604        0.2090182097        0.2638950695
 H          5.7842926004       -0.2132437798        1.3384770096
 H          2.7250528304       -0.8398464704       -0.9126718402
 H          2.7958523803       -1.8748697093        2.5462983502
 H          0.8529144202       -2.9798905588        3.6150627005
 H         -1.2562726198       -3.2466168091        2.3716296806
 H         -2.5499843798       -2.9242404296        0.4977970005
 C         -1.6597098898       -3.3922840003       -1.3857644593
 C         -1.6263806099       -4.8753560403       -1.1757836988
 C         -2.8214030398       -4.2352909804       -1.8146270691
 H         -2.9866275998       -4.3828426007       -2.8712275190
 H         -3.7313627598       -4.1621856702       -1.2369992791
 H         -0.9682124099       -5.4671637705       -1.7929269686
 H         -1.7270177699       -5.2388068999       -0.1643881687
 H         -1.0335492598       -2.9780492506       -2.1649044895
