  62
        -98.93488153
 C          2.0318095879        0.9185651096        0.6534007720
 C          1.8457108422        0.2309525385       -0.5700107647
 C          1.9415325828       -1.2399649476       -0.5193403990
 C          2.1638331735       -1.8442363000        0.6592845831
 C          2.3196227270       -3.3159721760        0.9299607949
 C          3.7962401739       -3.7409059430        0.8533151826
 C          4.2816458015       -4.1388212978       -0.5398101903
 H          5.3599428859       -4.3002819389       -0.4740145901
 H          3.8231040153       -5.0889732058       -0.8210749042
 C          4.0038828951       -3.1152011750       -1.6430503588
 H          4.2253288244       -2.1113086884       -1.2762525276
 H          4.6884435187       -3.3172104541       -2.4689479104
 C          2.5609763255       -3.1684706392       -2.1674179184
 H          2.5732860611       -3.2504477608       -3.2563357056
 H          2.0750748860       -4.0697363578       -1.7948370997
 C          1.7056594439       -1.9410451199       -1.8290008309
 H          0.6431087882       -2.2059448306       -1.8750142257
 H          1.8613181558       -1.1683250576       -2.5889972653
 H          4.4020485246       -2.9142326655        1.2331209351
 H          3.9492176731       -4.5913382681        1.5207881654
 H          1.7039088839       -3.8966413170        0.2493986061
 H          1.9610092881       -3.4786931578        1.9488261014
 O          2.3320752623       -1.1451951435        1.8181064179
 C          2.2376224922        0.2328755844        1.8507930737
 O          2.3556432547        0.7281487521        2.9914418664
 O          1.6158416842        0.8070370768       -1.6653604353
 C          1.8367333137        2.4233219437        0.7549520916
 C          0.5747813209        2.7895739848        0.0109918981
 C          0.4936447124        3.7778635233       -0.9598226187
 C         -0.6982832501        4.0006251631       -1.6285871544
 C         -1.8184422082        3.2365757076       -1.3607186723
 C         -1.7495442892        2.2530698610       -0.3793561425
 C         -0.5690163445        2.0607406529        0.3148981325
 H         -0.5238345560        1.2917328629        1.0741373953
 N         -2.8690540419        1.4586491316       -0.0680945998
 S         -2.6028065239       -0.1431243412        0.3976884389
 O         -2.2662508648       -0.1671737112        1.8008840069
 O         -1.6735487127       -0.7937082393       -0.4976496202
 C         -4.2432027445       -0.8067289623        0.1709693161
 C         -4.5380521297       -1.5124138632       -0.9800627295
 C         -5.8243282101       -1.9975372421       -1.1585056769
 C         -6.7894632333       -1.7663918548       -0.1899656760
 C         -6.4786614033       -1.0562362032        0.9603550088
 C         -5.1942269846       -0.5700661908        1.1456015565
 H         -4.9019454557       -0.0222685732        2.0262575502
 H         -7.2306330385       -0.8807218981        1.7125615907
 H         -7.7894619625       -2.1447774038       -0.3311267105
 H         -6.0672994077       -2.5527213558       -2.0501285489
 H         -3.7523808987       -1.6728147839       -1.7011124413
 H         -3.5924921179        1.5162987641       -0.7724705105
 H         -2.7361293993        3.3910410882       -1.9077271710
 H         -0.7474502532        4.7656550491       -2.3886991351
 H          1.3686815607        4.3516581516       -1.2173256103
 H          1.6594432329        2.6107587537        1.8280303821
 C          3.0472962352        3.2563256755        0.3632617789
 C          4.4306680961        2.6828830556        0.4317086554
 C          3.8177720641        3.0042307044       -0.8964312684
 H          4.1993485284        3.8553489562       -1.4413620124
 H          3.4878446477        2.1921505002       -1.5241124132
 H          5.2278923710        3.3109989881        0.8001611657
 H          4.5258388371        1.6444718228        0.7155261420
 H          2.9440465303        4.2915311294        0.6739752204
