  62
        -98.94434016
 C          1.8349066575        1.0654578143       -0.1621772047
 C          2.3415658037       -0.0701569446       -0.8384750163
 C          3.8061785584       -0.2007554437       -0.8571414351
 C          4.5613992224        0.7457761504       -0.2703275250
 C          6.0582729475        0.7078952121       -0.1685520060
 C          6.5088354120        0.0177776690        1.1266931503
 C          5.8255283136       -1.3260107768        1.3802654253
 H          6.2414373981       -1.7334279608        2.3042666317
 H          4.7601330646       -1.1581012088        1.5536866586
 C          5.9968893807       -2.3484114955        0.2481783117
 H          6.2487896350       -3.3168370860        0.6855018913
 H          6.8297411872       -2.0561550823       -0.3924270710
 C          4.7481498618       -2.5587009689       -0.6103617984
 H          4.9069370285       -3.4450800373       -1.2305199644
 H          3.8882327013       -2.7605969632        0.0336367880
 C          4.3830262343       -1.4028004924       -1.5503396570
 H          5.2538754399       -1.1243358072       -2.1474533782
 H          3.6015510401       -1.7603459501       -2.2275134851
 H          6.2856943808        0.6793460030        1.9668850281
 H          7.5901971516       -0.1242645696        1.0840432843
 H          6.4628073186        0.1836449543       -1.0321042394
 H          6.4293614711        1.7341247598       -0.1711018034
 O          4.0373166198        1.8339520771        0.3495097011
 C          2.6663878089        2.0158060288        0.4299288727
 O          2.3173322431        3.0425705327        1.0465364458
 H         -1.8273836323       -0.2137400239       -0.9605412985
 C         -1.4180708583       -0.5517488919       -0.0235600916
 C         -0.3295105250        0.0881307407        0.5467645108
 C          0.1718678713       -0.3949470630        1.7538645330
 C         -0.3832648804       -1.5053885865        2.3573423119
 C         -1.4613845372       -2.1516150554        1.7775702799
 C         -1.9765466999       -1.6720447654        0.5801576548
 N         -3.0635008177       -2.3117422094       -0.0298141773
 S         -4.2148269173       -1.4396254209       -0.8595096585
 O         -5.3860200619       -2.2906245734       -0.8471893484
 O         -3.7312667237       -1.0617245549       -2.1633280446
 C         -4.5166430222        0.0188698896        0.1247370080
 C         -4.5353978608        1.2543997985       -0.4878991317
 C         -4.7807894072        2.3826635348        0.2785748277
 C         -5.0004442208        2.2557446801        1.6409933284
 C         -4.9843246906        1.0062972097        2.2421380919
 C         -4.7432272658       -0.1247028721        1.4795537013
 H         -4.7328878874       -1.1075641220        1.9212673440
 H         -5.1578552849        0.9107730353        3.3018603863
 H         -5.1864803610        3.1350962047        2.2372875236
 H         -4.7965780612        3.3538967945       -0.1898689019
 H         -4.3530386364        1.3084873332       -1.5487633771
 H         -3.4610641320       -3.0805905167        0.4882127758
 H         -1.8914205578       -3.0264709071        2.2409072484
 H          0.0238921345       -1.8725116099        3.2874266805
 H          1.0159954053        0.1095749142        2.2047468617
 C          0.3348897998        1.2890689146       -0.0793284781
 H          0.1920429284        2.1489272603        0.5914303864
 C         -0.2067070875        1.6458479604       -1.4473913364
 C         -1.4134486136        2.5233456018       -1.5782025880
 C         -0.0584164513        3.0550957802       -1.9340677367
 H          0.1768333819        3.2198697862       -2.9749079288
 H          0.4087316985        3.7618552589       -1.2635453266
 H         -2.1079444699        2.3195336752       -2.3792830720
 H         -1.8753967744        2.8760595530       -0.6686169904
 H         -0.0719128742        0.8502525398       -2.1718685048
 O          1.6127735732       -0.9315135832       -1.3967577685
