  62
        -98.94077107
 C         -1.8394367550       -0.7730349668        0.4936543381
 C         -2.3040236671        0.0453904155       -0.5658990148
 C         -3.4311344576        0.9349569978       -0.2390144052
 C         -3.9018056292        0.9771326184        1.0197764222
 C         -5.0777713273        1.7920004766        1.4723189669
 C         -6.3826861470        0.9904295443        1.3649517156
 C         -6.5765557076        0.3030981086        0.0132688603
 H         -5.8125198464       -0.4682214270       -0.1080910898
 H         -7.5429720186       -0.2047038002        0.0426807579
 C         -6.5335932810        1.2510920635       -1.1933894317
 H         -7.3561187710        0.9990632445       -1.8659975130
 H         -6.6890408492        2.2788270411       -0.8631176721
 C         -5.2460218114        1.1729546134       -2.0160502203
 H         -5.0381414036        0.1308625480       -2.2719776913
 H         -5.4075260150        1.7130290819       -2.9527424789
 C         -3.9953505956        1.7671877991       -1.3558073871
 H         -3.2096147258        1.8198862142       -2.1155166350
 H         -4.2075192266        2.7817929050       -1.0121132871
 H         -7.2187094769        1.6659480136        1.5549773689
 H         -6.3827584318        0.2230809523        2.1427173514
 H         -4.9199291084        2.0748795978        2.5145746992
 H         -5.1423385187        2.6945084068        0.8674767210
 O         -3.3744474637        0.2380358834        2.0294126533
 C         -2.3395114643       -0.6522704383        1.7925372771
 O         -1.9455609286       -1.2590343687        2.8090387732
 H          0.6046532145        0.4066739326        1.0346923250
 C          0.9971941784        0.0264567911        0.0988398704
 C          0.4258276603       -1.1120679061       -0.4581488079
 C          0.9389943420       -1.5919368603       -1.6550550436
 C          1.9785951637       -0.9305549412       -2.2864075680
 C          2.5315643475        0.2118918645       -1.7394367993
 C          2.0325742762        0.6942617486       -0.5355625326
 N          2.5930652802        1.8500476388        0.0347435042
 S          4.2601069209        1.9842200410        0.0670955032
 O          4.5477287422        2.8467360008        1.1918829603
 O          4.7367643319        2.4419306956       -1.2141780020
 C          4.8553059749        0.3312075473        0.3778759530
 C          4.4949372946       -0.2742582685        1.5655367403
 C          4.9148833634       -1.5711134796        1.8115576602
 C          5.6833827177       -2.2377978588        0.8692701855
 C          6.0410096007       -1.6145931204       -0.3159497694
 C          5.6228067734       -0.3175682478       -0.5676163553
 H          5.8774092660        0.2038548501       -1.4757875614
 H          6.6402666369       -2.1347985537       -1.0455806455
 H          6.0054211079       -3.2488104137        1.0625765109
 H          4.6380697323       -2.0568150645        2.7336197933
 H          3.9013879129        0.2737862357        2.2799823186
 H          2.1848425143        2.1131141927        0.9190564271
 H          3.3267288452        0.7486145663       -2.2308386848
 H          2.3587388659       -1.3065422674       -3.2239020511
 H          0.5070090999       -2.4673567931       -2.1105486071
 C         -0.7061786382       -1.7657296347        0.2963838443
 H         -0.3437721411       -1.9838301579        1.3147097849
 C         -1.1424442343       -3.0965588337       -0.2984996327
 C         -2.5372271840       -3.6089179371       -0.1005709491
 C         -2.0800511326       -3.1879702047       -1.4632739582
 H         -1.9049426874       -3.9558733390       -2.2027122455
 H         -2.4574716068       -2.2654895970       -1.8744314055
 H         -2.6740092133       -4.6615694322        0.0968981224
 H         -3.2343430386       -2.9733151874        0.4266522628
 H         -0.3509537491       -3.8379694705       -0.2514608123
 O         -1.8165804695        0.0431757544       -1.7247395329
