  62
        -98.94497399
 C         -2.5469941504       -0.1608865211        0.4491836869
 C         -2.4273826512        0.5265847412       -0.7822867985
 C         -2.2423761476        1.9809026082       -0.6883836977
 C         -2.1947798761        2.5633805081        0.5232111831
 C         -1.9992704366        4.0324486182        0.7621146496
 C         -0.5188930025        4.3918364101        0.9432171442
 C          0.4009911268        3.8343675786       -0.1434588988
 H          1.4035889670        4.2182671983        0.0600203233
 H          0.4585668360        2.7472828389       -0.0476236092
 C         -0.0030601588        4.2039726082       -1.5773281765
 H         -0.6640948800        5.0717746512       -1.5651696142
 H          0.8964517103        4.4881666253       -2.1274080362
 C         -0.6642667142        3.0704273900       -2.3639839941
 H         -0.6645228926        3.3445696243       -3.4225537491
 H         -0.0686297590        2.1597222756       -2.2575802532
 C         -2.1118838707        2.7441916672       -1.9758312575
 H         -2.5272361400        2.0930333461       -2.7506148990
 H         -2.7024232292        3.6623649312       -1.9440485985
 H         -0.4338236316        5.4803891067        0.9709149520
 H         -0.1813999302        3.9988144925        1.9053642988
 H         -2.5410681226        4.3040143290        1.6702256606
 H         -2.4169241291        4.5860019005       -0.0769577833
 O         -2.3079008210        1.8684411941        1.6855083031
 C         -2.4628180102        0.4919478063        1.6769508809
 O         -2.5251445146       -0.0269734867        2.8125063088
 O         -2.4827775612       -0.0437538567       -1.9036721794
 C         -2.7039222004       -1.6696828049        0.4547732306
 C         -1.5504826591       -2.3175927718       -0.2744397819
 C         -1.6894753016       -3.4544543702       -1.0601795762
 C         -0.5864188544       -4.0082695259       -1.6876535001
 C          0.6681693655       -3.4446063499       -1.5508813820
 C          0.8168520916       -2.3026424245       -0.7694932623
 C         -0.2850606305       -1.7651036013       -0.1270123977
 H         -0.1588547992       -0.8892531673        0.4929031816
 N          2.0668393163       -1.6717464733       -0.6586004175
 S          2.3674252399       -0.5827153407        0.5873276525
 O          2.1279464218       -1.2054334933        1.8720581744
 O          1.6564507508        0.6416524402        0.3212238716
 C          4.1166360154       -0.3294362217        0.3547009158
 C          5.0117696344       -1.0977368975        1.0751297086
 C          6.3701781245       -0.9163651415        0.8682601197
 C          6.8082565647        0.0240689593       -0.0520315784
 C          5.8982293969        0.7894453501       -0.7660275274
 C          4.5385370993        0.6131026386       -0.5635563858
 H          3.7939516871        1.1896026689       -1.0876450725
 H          6.2421994712        1.5223689019       -1.4778024864
 H          7.8657397103        0.1639183120       -0.2111964507
 H          7.0796920664       -1.5070523096        1.4249166525
 H          4.6246682934       -1.8077202346        1.7883023252
 H          2.8499065959       -2.2832075341       -0.8402709966
 H          1.5238119113       -3.8728345057       -2.0497288987
 H         -0.7071408709       -4.8923550773       -2.2952223109
 H         -2.6610258410       -3.9045906191       -1.1833491601
 H         -2.6529395725       -1.9777215598        1.5107501918
 C         -4.0580581286       -2.0593414764       -0.1035220000
 C         -4.7757875054       -3.2676749024        0.4161447086
 C         -5.2683646348       -1.8961686408        0.7644029750
 H         -6.1835176342       -1.5432545952        0.3134586012
 H         -5.1077395414       -1.5320141381        1.7691892231
 H         -5.3585520270       -3.8580800419       -0.2747792897
 H         -4.2924251967       -3.8417017474        1.1924324456
 H         -4.1574001528       -1.8130405795       -1.1544254676
