  62
        -98.93313496
 C         -1.9625496655       -0.9739750623       -0.7409181156
 C         -3.3617468893       -1.0243139702       -0.5099547505
 C         -4.0615855899        0.2630344996       -0.4718209084
 C         -3.3689307332        1.4020201847       -0.6523826208
 C         -3.9390113788        2.7943458430       -0.6585149793
 C         -4.1092792412        3.4051222888        0.7392702328
 C         -5.2525798637        2.8208006992        1.5699236401
 H         -5.3975339888        3.4830166144        2.4258277867
 H         -6.1724915142        2.8396761798        0.9846360935
 C         -4.9975995834        1.3976752448        2.0861780935
 H         -3.9301521706        1.1723122448        2.0231825687
 H         -5.2731364615        1.3383031746        3.1416195165
 C         -5.7786661823        0.3074002482        1.3523235914
 H         -5.4925391043       -0.6602803393        1.7724411976
 H         -6.8486334244        0.4451092614        1.5233151065
 C         -5.5277378291        0.2600641351       -0.1604763420
 H         -6.0222808029        1.0987410683       -0.6500715077
 H         -5.9487172958       -0.6707289299       -0.5484205864
 H         -3.1694761716        3.2961135652        1.2859064592
 H         -4.2945559909        4.4736826337        0.6075224304
 H         -4.8987323459        2.7949893941       -1.1761006408
 H         -3.2388387664        3.4149841911       -1.2216496382
 O         -2.0307897858        1.4108373655       -0.8784885702
 C         -1.2895094894        0.2352010646       -0.9178198514
 O         -0.0769076876        0.4227240973       -1.1208820090
 O         -3.9962214156       -2.1009336349       -0.3468756102
 C         -1.2152829468       -2.3032689645       -0.7545827069
 C         -0.0888308684       -2.2394892088        0.2449433684
 C         -0.4117442760       -2.5016791631        1.5764738751
 C          0.5225995738       -2.3678090615        2.5856013973
 C          1.8147258346       -1.9699827962        2.2929345031
 C          2.1500840053       -1.7032922123        0.9741402569
 C          1.2097385032       -1.8436760855       -0.0390291187
 H          1.5036119827       -1.5947483582       -1.0437767466
 N          3.4654174236       -1.2919477299        0.6828594607
 S          3.9980593426        0.1663327246        1.3385177701
 O          5.3132543639       -0.0647192899        1.8939626173
 O          3.0086703901        0.6631360219        2.2627834307
 C          4.1528677618        1.2561666755       -0.0679083010
 C          3.0203639074        1.5717731452       -0.7938549094
 C          3.1464570882        2.4119869241       -1.8897377239
 C          4.3887936923        2.9188609007       -2.2393493477
 C          5.5150949258        2.5901107075       -1.5001487847
 C          5.3987752804        1.7499434129       -0.4044427295
 H          6.2448895083        1.4637564486        0.1988310347
 H          6.4806138044        2.9838641287       -1.7739696127
 H          4.4777513852        3.5718505017       -3.0933213224
 H          2.2656527314        2.6575264184       -2.4616694789
 H          2.0591891176        1.1657035293       -0.5157458510
 H          3.6843875740       -1.3278676831       -0.3029718321
 H          2.5578558311       -1.8424040209        3.0638869166
 H          0.2427361908       -2.5727285447        3.6081375773
 H         -1.4237425716       -2.7978818119        1.8177613474
 H         -1.9490378022       -3.0179705699       -0.3498791520
 C         -0.9558836209       -2.7738302351       -2.1801070097
 C          0.0020489109       -2.1451812697       -3.1458064694
 C          0.2662483253       -3.5232563913       -2.6160736282
 H          0.1345985746       -4.3577863942       -3.2886758226
 H          1.0590566383       -3.6625027345       -1.8984304512
 H         -0.3206677839       -2.0491034762       -4.1730229931
 H          0.5961070506       -1.3105959768       -2.8115073360
 H         -1.8935290948       -3.1025651106       -2.6217736699
