  62
        -98.93450260
 C          2.3334831612        0.8102224339       -0.1403641071
 C          3.5554076652        1.1701597778        0.4725677276
 C          4.7719187246        0.5391277818       -0.0680101799
 C          4.6582527567       -0.3168684191       -1.0985773672
 C          5.7547645010       -1.1061948381       -1.7589831655
 C          5.8737684878       -2.5031345482       -1.1259504791
 C          6.7865799969       -2.5804302715        0.0971981602
 H          6.6796793894       -3.5822900805        0.5193770281
 H          7.8247135643       -2.4684940656       -0.2223963126
 C          6.4991608180       -1.5516606413        1.1938569727
 H          5.4215329827       -1.4692446567        1.3470080371
 H          6.9300604983       -1.9252308621        2.1248049718
 C          7.0915019856       -0.1668003788        0.8930696997
 H          7.7894243701       -0.2510799618        0.0604080341
 H          7.6741914414        0.1716405939        1.7523380476
 C          6.0632666342        0.9345096484        0.5953933781
 H          5.7571730402        1.4095439068        1.5328292492
 H          6.5398433583        1.7147986011       -0.0072812572
 H          6.2559527284       -3.1969504945       -1.8774023752
 H          4.8674595204       -2.8347206708       -0.8570248137
 H          6.6981604969       -0.5705851622       -1.7126580770
 H          5.4660064460       -1.2221877604       -2.8056144880
 O          3.4598633401       -0.6304721386       -1.6648007952
 C          2.2721147279       -0.0907896920       -1.2027759451
 O          1.2584715810       -0.4831142630       -1.8110833640
 O          3.6272790858        1.9757673228        1.4403390008
 C          1.0430191914        1.4157352085        0.3809064602
 C          0.1200846378        0.3217062722        0.8575128633
 C          0.5860788930       -0.5722383166        1.8194433626
 C         -0.2185666761       -1.5936688492        2.2837654179
 C         -1.5096175839       -1.7407947840        1.8068677066
 C         -1.9831856086       -0.8569643494        0.8451754998
 C         -1.1707915742        0.1687844100        0.3799681527
 H         -1.5656203796        0.8387543501       -0.3647304637
 N         -3.2766757618       -1.0021811896        0.3197297034
 S         -4.1424566683        0.3750213740       -0.1247199364
 O         -3.7269269013        0.7964757965       -1.4385806470
 O         -4.0616421854        1.3702287225        0.9211600591
 C         -5.7897156157       -0.3039375767       -0.2064701947
 C         -6.1565904111       -1.0116786386       -1.3357103042
 C         -7.4237979848       -1.5692887942       -1.3944802106
 C         -8.2984204460       -1.4107250352       -0.3295283901
 C         -7.9170869227       -0.6958917551        0.7958958958
 C         -6.6502878937       -0.1370180224        0.8619976005
 H         -6.3130203818        0.4333696253        1.7124333731
 H         -8.6005742274       -0.5716340884        1.6203118915
 H         -9.2845009769       -1.8448992384       -0.3786539604
 H         -7.7243608596       -2.1234969608       -2.2689942382
 H         -5.4461038886       -1.1005082153       -2.1411688224
 H         -3.8465998119       -1.6494271815        0.8467993345
 H         -2.1402891503       -2.5385147772        2.1689244404
 H          0.1581365213       -2.2784759184        3.0287594784
 H          1.5932404736       -0.4524020513        2.1956795268
 H          1.3337044200        2.0208917605        1.2528558770
 C          0.4213347034        2.3269079015       -0.6552566230
 C         -0.5149629102        3.4164590588       -0.2288665064
 C          0.8552433372        3.7587373248       -0.7297857195
 H          0.9497782308        4.2184738071       -1.7020447119
 H          1.5927912297        4.0913781346       -0.0140525644
 H         -1.3685572271        3.6340319066       -0.8538007836
 H         -0.7138708885        3.5177228604        0.8276193461
 H          0.2145095052        1.8179486478       -1.5907853705
