  62
        -98.93834097
 C         -2.2509270428       -0.9947419535        0.3935341662
 C         -2.4810937191       -0.1209959492       -0.6941030198
 C         -3.3469190805        1.0434116710       -0.4288644734
 C         -3.8495584963        1.2279599039        0.8061291393
 C         -4.7194711317        2.3301191689        1.3744881831
 C         -5.4489946678        3.3038537682        0.4525357105
 C         -6.5603437234        2.6776712193       -0.3891602126
 H         -7.3781311089        2.3884895612        0.2757265445
 H         -6.9412194541        3.4398422157       -1.0725155066
 C         -6.1625653561        1.4426981897       -1.1937754552
 H         -7.0457856618        1.1024148584       -1.7411579740
 H         -5.8769958651        0.6376017205       -0.5135393007
 C         -5.0409790036        1.6564002815       -2.2084651341
 H         -4.9712345762        0.7506226689       -2.8165638200
 H         -5.2975521802        2.4851037545       -2.8710893554
 C         -3.6477413545        1.9193237894       -1.6107578752
 H         -2.9010098699        1.6716863817       -2.3709485008
 H         -3.5175844611        2.9681876121       -1.3552386097
 H         -4.7388894312        3.8262500368       -0.1815781164
 H         -5.9092824228        4.0565253703        1.0984924276
 H         -5.4512853997        1.8289206009        2.0160740348
 H         -4.0701001816        2.9067861408        2.0428332983
 O         -3.5657166501        0.3737159027        1.8349474536
 C         -2.7745332543       -0.7476050412        1.6596804548
 O         -2.6080693466       -1.4276689679        2.6938962854
 H          0.1033639176       -0.2738542643        1.2252207560
 C          0.6316566243       -0.7827329816        0.4269753672
 C          0.0035908577       -1.8304660691       -0.2354707927
 C          0.6996797030       -2.4859059858       -1.2423107522
 C          1.9794316584       -2.0843685822       -1.5853164740
 C          2.5919530084       -1.0287446193       -0.9362057530
 C          1.9104053157       -0.3743293368        0.0818535366
 N          2.5212075712        0.7068014001        0.7435804780
 S          4.0507482497        0.4632135740        1.3949412119
 O          4.2521563836       -0.9180707559        1.7677041821
 O          4.1700385971        1.4393296940        2.4563249461
 C          5.1558250560        0.9071550923        0.0717481698
 C          6.1142003763        0.0094746252       -0.3562102931
 C          6.9700350119        0.3818215518       -1.3813337429
 C          6.8533529611        1.6382707530       -1.9557761364
 C          5.8866621486        2.5288831811       -1.5126615549
 C          5.0287568882        2.1635653135       -0.4876424687
 H          4.2661478785        2.8257442381       -0.1126896646
 H          5.7987554450        3.5050538886       -1.9617988491
 H          7.5198574031        1.9256985415       -2.7535618240
 H          7.7225444701       -0.3085799360       -1.7269065451
 H          6.1629936596       -0.9585370830        0.1163988776
 H          1.9202084536        1.1560326134        1.4194704904
 H          3.5848724200       -0.7084638485       -1.2063434055
 H          2.5056770214       -2.5991970245       -2.3744867186
 H          0.2389525293       -3.3096004217       -1.7621322260
 C         -1.3852931326       -2.2266017634        0.2063516747
 H         -1.3010639773       -2.6923487855        1.2000317727
 C         -2.0639631011       -3.2022764052       -0.7328831632
 C         -1.8398555418       -4.6763377621       -0.5853610363
 C         -3.1568582545       -4.0759930307       -0.1975396207
 H         -4.0172686318       -4.2676593284       -0.8209342855
 H         -3.3913531248       -3.9872671410        0.8537407683
 H         -1.7993648762       -5.2841477573       -1.4766635744
 H         -1.1820805515       -5.0060764519        0.2047571579
 H         -2.1896094428       -2.7980012474       -1.7305509315
 O         -1.9834244889       -0.2956015529       -1.8360058717
