  62
        -98.93920619
 C         -2.2750376749       -0.9042972927        0.6592596098
 C         -3.3396928965       -0.8551277217       -0.2738994184
 C         -4.3680078744        0.1667988100       -0.0215813057
 C         -4.2527970372        0.9751188411        1.0468457462
 C         -5.1993314140        2.0884594606        1.3890553120
 C         -4.7539136046        3.4143657662        0.7566308578
 C         -4.4235969698        3.3088443024       -0.7322394071
 H         -4.1528703621        4.3093830105       -1.0764398781
 H         -3.5408057759        2.6771218684       -0.8571107397
 C         -5.5659934885        2.7609733579       -1.5989654227
 H         -6.5104536941        2.8392578677       -1.0593689603
 H         -5.6522549778        3.3786029463       -2.4953425587
 C         -5.3687809508        1.3185659846       -2.0685503169
 H         -4.3813878831        1.2132837835       -2.5250507196
 H         -6.1119556646        1.1084560335       -2.8422448403
 C         -5.5168797833        0.2400108438       -0.9882422702
 H         -5.5457976876       -0.7310227480       -1.4908323222
 H         -6.4591960841        0.3797330073       -0.4548714639
 H         -3.8618460170        3.7651932385        1.2808868445
 H         -5.5466139870        4.1500465498        0.9045070168
 H         -6.1977779259        1.8267929461        1.0440358376
 H         -5.2172410535        2.2017001445        2.4743224606
 O         -3.2208606611        0.8934293429        1.9265003650
 C         -2.2123122172       -0.0382065238        1.7542832379
 O         -1.3323123837       -0.0049243258        2.6394885134
 O         -3.4499210792       -1.6218038608       -1.2654404077
 C         -1.1305299780       -1.8973756919        0.5283766115
 C         -0.2066174621       -1.4786946921       -0.5909696732
 C         -0.4268960093       -1.8404384670       -1.9154823256
 C          0.4501844898       -1.4344542784       -2.9051134678
 C          1.5702347932       -0.6847308274       -2.5946521878
 C          1.7926220357       -0.3071162363       -1.2749959601
 C          0.8995512324       -0.6956635018       -0.2872046369
 H          1.0769604858       -0.3879094073        0.7343317493
 N          2.9089229209        0.4719651933       -0.9312470430
 S          3.6533541495        0.1933168915        0.5581845068
 O          3.6854077495       -1.2247859691        0.8365183887
 O          3.0310200263        1.0310335207        1.5527038673
 C          5.3013967088        0.7850780355        0.2177425203
 C          5.5661395878        2.1365126551        0.3353610276
 C          6.8402869893        2.5971155382        0.0433776749
 C          7.8224165168        1.7045383316       -0.3600017534
 C          7.5423814961        0.3508496243       -0.4717265424
 C          6.2700626817       -0.1163927867       -0.1821592453
 H          6.0084912603       -1.1604689074       -0.2449178851
 H          8.3088348995       -0.3410364712       -0.7816984085
 H          8.8133253036        2.0658421426       -0.5852547290
 H          7.0625231208        3.6482289638        0.1328319813
 H          4.7735425470        2.7897189262        0.6618832120
 H          3.5802862840        0.5546466628       -1.6823991711
 H          2.2633955624       -0.3852233684       -3.3661636677
 H          0.2662386758       -1.7183700112       -3.9302850636
 H         -1.3008221123       -2.4185054034       -2.1669757697
 H         -0.5624946142       -1.8176630518        1.4659698350
 C         -1.6119117770       -3.3271402576        0.3808575575
 C         -0.6337743388       -4.4412793523        0.5955850455
 C         -1.7184396415       -4.1913491366        1.5991091332
 H         -2.5354975786       -4.8943719423        1.6618784652
 H         -1.4450807280       -3.7533936710        2.5485704036
 H         -0.7038027694       -5.3180563202       -0.0295812475
 H          0.3772293427       -4.1692128742        0.8623975379
 H         -2.3671614231       -3.4547145864       -0.3831648399
