  62
        -98.94124085
 C         -2.7677168054       -0.2817774836       -0.1869816464
 C         -2.1123031275        0.6044427846       -1.0757886019
 C         -2.1558942420        2.0268113658       -0.7131542651
 C         -2.7600093890        2.4172086869        0.4223902115
 C         -2.8712822340        3.8288111791        0.9298159555
 C         -1.6270043895        4.3148574478        1.6860167100
 C         -0.4082157248        4.6198560177        0.8139595254
 H         -0.7026676092        5.2786521419       -0.0037614634
 H          0.2992314039        5.1693159438        1.4381319755
 C          0.3003713679        3.3804988892        0.2494985354
 H          1.3800709905        3.4938424675        0.3769544835
 H          0.0156871599        2.4938820036        0.8226347636
 C          0.0406760196        3.1209827421       -1.2348072277
 H          0.5348654061        2.1847672507       -1.5081186685
 H          0.4810146893        3.9241274619       -1.8303966428
 C         -1.4416114352        2.9955038642       -1.6077918288
 H         -1.5047536681        2.6123047188       -2.6293678209
 H         -1.9230772347        3.9720560310       -1.5693404644
 H         -1.3576324101        3.5656841620        2.4346750438
 H         -1.9050965080        5.2292172455        2.2154823506
 H         -3.0816434731        4.5034508183        0.0993894717
 H         -3.7204048882        3.8460745361        1.6163385561
 O         -3.3711234722        1.5371613456        1.2586471039
 C         -3.3774889546        0.1814777667        0.9841167415
 O         -3.9627614464       -0.5080128241        1.8437617280
 O         -1.5076507913        0.2572346092       -2.1269827647
 C         -2.8003409052       -1.7933227658       -0.3715076258
 C         -1.5204404911       -2.3842254593        0.1706641060
 C         -1.5271045695       -3.2926883848        1.2217696446
 C         -0.3387135569       -3.7553536595        1.7615304551
 C          0.8782860415       -3.3100173669        1.2764690603
 C          0.8916588336       -2.4064521453        0.2229551124
 C         -0.2974472963       -1.9666123056       -0.3341050173
 H         -0.2757412453       -1.2568216818       -1.1481349000
 N          2.1297430761       -1.8923428853       -0.2443288532
 S          2.7973147338       -0.8274633772        0.8967722519
 O          3.3582616007       -1.6183316496        1.9633058134
 O          1.8157715795        0.1601671054        1.2902266478
 C          4.1004330522       -0.0667455179       -0.0508805989
 C          3.8361567247        1.1133705683       -0.7189885610
 C          4.8363095374        1.6871935882       -1.4878234733
 C          6.0754843604        1.0708327359       -1.5773344877
 C          6.3249276533       -0.1144511817       -0.9015468953
 C          5.3292228471       -0.6930698369       -0.1306036547
 H          5.4775204289       -1.6085463969        0.4175057435
 H          7.2903555544       -0.5886703325       -0.9729977894
 H          6.8519454978        1.5193257716       -2.1766783023
 H          4.6437059699        2.6091984493       -2.0124261899
 H          2.8598437452        1.5608258613       -0.6140009667
 H          1.9829963077       -1.3687465014       -1.1000281134
 H          1.8106748552       -3.6255074932        1.7157792689
 H         -0.3606095694       -4.4566196224        2.5821113338
 H         -2.4718504034       -3.6138418944        1.6360815840
 H         -3.6275583061       -2.1542900605        0.2543394107
 C         -3.0524575610       -2.2303799418       -1.8005623373
 C         -3.6003256952       -3.6016076188       -2.0523072909
 C         -4.4623915335       -2.3965505292       -2.2777851742
 H         -4.6989549828       -2.1102467497       -3.2913912343
 H         -5.2554604010       -2.1968694328       -1.5716487731
 H         -3.2440813543       -4.1474493123       -2.9122553913
 H         -3.8113306774       -4.2214964237       -1.1940550328
 H         -2.3330514836       -1.8364796508       -2.5055935138
