  62
        -98.94892169
 C          2.2258055470        0.8759462632        0.0801476162
 C          1.5881686091        0.1315876410       -0.9411609548
 C          2.0092827553       -1.2690847343       -1.0747445696
 C          2.9203237011       -1.7665250971       -0.2193274645
 C          3.4445162483       -3.1730107588       -0.2421669132
 C          2.6297591007       -4.1044722294        0.6642194269
 C          1.1189304398       -4.0210173676        0.4458418243
 H          0.6546883153       -4.7637211305        1.0995299419
 H          0.7540344680       -3.0441727074        0.7723040606
 C          0.6682482797       -4.2623082425       -1.0014927635
 H          1.4557273015       -4.7721873334       -1.5588778685
 H         -0.2017525468       -4.9223195143       -0.9873452616
 C          0.2504834024       -2.9911061603       -1.7433454545
 H         -0.4266954310       -2.4164164558       -1.1063111416
 H         -0.3027759589       -3.2828540552       -2.6403272917
 C          1.3967282450       -2.0726189219       -2.1869995188
 H          2.1596724675       -2.6589022727       -2.7045893229
 H          0.9860793538       -1.3432864881       -2.8914532002
 H          2.9667231651       -5.1292117638        0.4936796217
 H          2.8386532958       -3.8473130691        1.7054735862
 H          3.4252339116       -3.5409668362       -1.2664117620
 H          4.4783886796       -3.1559853591        0.1084502745
 O          3.4654192294       -1.0374904472        0.7896069589
 C          3.1233230439        0.2922741467        0.9713144065
 O          3.6785803726        0.8397954418        1.9480847879
 H          0.3542690070        0.9388471311        1.9028694249
 C         -0.2390788923        1.6394022419        1.3268959422
 C          0.3948573770        2.4906638328        0.4297641993
 C         -0.3834616633        3.3857022793       -0.2925758912
 C         -1.7612023391        3.3926966730       -0.1539105917
 C         -2.3912032591        2.4962127329        0.6902513791
 C         -1.6174841567        1.6193456584        1.4376525386
 N         -2.2750342814        0.6324162052        2.2333516142
 S         -2.2753777836       -0.8443005649        1.4051699698
 O         -3.0102864252       -1.7664771876        2.2459734086
 O         -0.9297463370       -1.2586284342        1.0711906414
 C         -3.2117291349       -0.4551793506       -0.0527263393
 C         -2.5614347747       -0.0232069402       -1.1916822742
 C         -3.3226431077        0.3243132349       -2.2974859305
 C         -4.7051874830        0.2391412506       -2.2447020267
 C         -5.3409777768       -0.1956007757       -1.0910082294
 C         -4.5887041566       -0.5442394162        0.0184935623
 H         -5.0338063433       -0.8900680425        0.9369858829
 H         -6.4164316302       -0.2607611245       -1.0524787809
 H         -5.2899513354        0.5141562921       -3.1084195190
 H         -2.8229709158        0.6659809442       -3.1896237779
 H         -1.4837805184        0.0450546857       -1.2076518723
 H         -1.8145072108        0.4815735937        3.1220690260
 H         -3.4649046259        2.4604216158        0.7766450426
 H         -2.3521931267        4.0871666342       -0.7304672665
 H          0.0892193540        4.0657451229       -0.9821786586
 C          1.8871083220        2.3462372664        0.2672967913
 H          2.3752306575        2.6569494172        1.2026431414
 C          2.4542306019        3.1591946157       -0.8778481513
 C          2.8295868056        4.5952861516       -0.6719934364
 C          3.8977950118        3.5573791873       -0.8366419550
 H          4.4644447169        3.5379123944       -1.7553622344
 H          4.4676494356        3.2616622444        0.0325204919
 H          2.6803133509        5.0152165920        0.3111739098
 H          2.6673025217        5.2922415948       -1.4801064424
 H          2.0441768628        2.8666653131       -1.8376277937
 O          0.7253580529        0.6193645003       -1.7169548295
