  62
        -98.93747472
 C          2.1887544409       -0.8151924687        0.1028129061
 C          2.9228641244       -0.1235390241       -0.8875340903
 C          3.7167172490        1.0287525370       -0.4293008510
 C          3.6822165958        1.3774067183        0.8685539622
 C          4.3725095294        2.5342632737        1.5471867766
 C          5.8307833763        2.8164575788        1.1598937535
 C          6.6578873503        1.5757818086        0.7927843061
 H          7.5871968609        1.5870659479        1.3652232847
 H          6.1164020452        0.6693029025        1.0685633758
 C          7.0230331626        1.5199138400       -0.6925858770
 H          7.3292157164        2.5172514636       -1.0158346919
 H          7.8828733756        0.8576054108       -0.8183974636
 C          5.9210885196        1.0102379250       -1.6206719154
 H          5.7657117223       -0.0599086689       -1.4586540952
 H          6.2655791741        1.1308219977       -2.6506524216
 C          4.5576066412        1.7053257973       -1.4735688478
 H          4.6759623526        2.7670773496       -1.2708112813
 H          4.0178642727        1.5894343340       -2.4177380848
 H          5.8577958066        3.5190451053        0.3280678469
 H          6.2902467330        3.3211554179        2.0113992530
 H          3.7760625498        3.4348931351        1.3742118287
 H          4.3141811173        2.3108332902        2.6150734564
 O          2.9357023057        0.6985236213        1.7852770375
 C          2.1788860833       -0.4092407303        1.4364562508
 O          1.5571763696       -0.9260668901        2.3827174755
 O          2.9047198311       -0.4442211199       -2.1074920821
 C          1.3627005985       -2.0227858303       -0.2976131277
 C         -0.0957413585       -1.7979503710        0.0195707530
 C         -0.9054051285       -2.7614160482        0.6061778952
 C         -2.2416392614       -2.4979778435        0.8545251889
 C         -2.7992929355       -1.2771782070        0.5241568873
 C         -2.0026359575       -0.3103651273       -0.0758498616
 C         -0.6666217040       -0.5795112401       -0.3283782006
 H         -0.0481177555        0.1752031252       -0.7999758403
 N         -2.5587281815        0.9381793942       -0.4086097926
 S         -3.9608587190        0.9537284962       -1.3340628534
 O         -4.0414179647       -0.2074753478       -2.1897751324
 O         -3.9626583392        2.2406832835       -1.9951259317
 C         -5.2723271987        0.9180665763       -0.1307638077
 C         -5.2993317226        1.9073678161        0.8325772089
 C         -6.3187074533        1.8991019884        1.7711258104
 C         -7.2896345682        0.9094349917        1.7288314326
 C         -7.2503485601       -0.0746939580        0.7530626801
 C         -6.2326943034       -0.0728396855       -0.1882810879
 H         -6.1578942743       -0.8203027339       -0.9618749962
 H         -8.0062143423       -0.8428251466        0.7218470449
 H         -8.0815729536        0.9056233319        2.4609902022
 H         -6.3522907876        2.6625989840        2.5315736967
 H         -4.5279544338        2.6593923201        0.8286895121
 H         -1.8861923858        1.5939595005       -0.7791872403
 H         -3.8371079691       -1.0662576380        0.7236580177
 H         -2.8567139058       -3.2544175000        1.3173889708
 H         -0.4898402151       -3.7189608669        0.8733062317
 H          1.4621315165       -2.0954290545       -1.3916950896
 C          1.9327289083       -3.2797082964        0.3262919015
 C          1.7947020546       -4.6005404031       -0.3682964999
 C          3.1289213913       -3.9214992139       -0.3082075110
 H          3.8931475796       -4.3358143304        0.3321023541
 H          3.5142547452       -3.4677967865       -1.2099408415
 H          1.6450739281       -5.4856209544        0.2314115801
 H          1.2769165669       -4.6157170908       -1.3155221386
 H          1.8905205018       -3.2606813819        1.4095738539
