  62
        -98.93770434
 C         -1.9480110069       -1.0308732099        0.0620133473
 C         -2.3097941538       -0.0759636926        1.0390076368
 C         -2.5010345932        1.3004894258        0.5612203581
 C         -2.2916662047        1.5757687402       -0.7392437217
 C         -2.5084639395        2.9123881945       -1.3909599697
 C         -4.0152298757        3.1528075822       -1.6163268305
 C         -4.5974859944        4.3115175545       -0.8065494269
 H         -4.2916539846        5.2538834597       -1.2654543143
 H         -5.6850835035        4.2461639564       -0.8786051749
 C         -4.1978665846        4.3590965015        0.6712367132
 H         -3.1964017570        4.7810472671        0.7678703296
 H         -4.8792880922        5.0565073866        1.1629472270
 C         -4.2386480061        3.0209148266        1.4201429782
 H         -4.9286123067        2.3294771847        0.9362621987
 H         -4.6242026608        3.2053099484        2.4248431200
 C         -2.8686196967        2.3367805502        1.5874460705
 H         -2.0807147560        3.0944235221        1.6351507852
 H         -2.8598461413        1.7987923076        2.5403355011
 H         -4.1971774523        3.3485741038       -2.6740261394
 H         -4.5472518540        2.2313976524       -1.3708732112
 H         -2.0815549212        3.6953529628       -0.7678560883
 H         -1.9760791288        2.8968671461       -2.3422873857
 O         -1.9316940903        0.6323564230       -1.6478763156
 C         -1.7342546612       -0.6865526041       -1.2723382808
 O         -1.3935506409       -1.4424825262       -2.2027158509
 H          0.4758503272       -0.9647132829        0.8666603578
 C          0.7322063581       -1.9163634525        0.4223731156
 C         -0.2682715981       -2.8428829365        0.1560986389
 C          0.0901253804       -4.0643615138       -0.3991608890
 C          1.4127324320       -4.3298156391       -0.7102771887
 C          2.3977696967       -3.3864072420       -0.4865022900
 C          2.0517038115       -2.1684565026        0.0891832670
 N          3.0291806283       -1.1931161203        0.3584414596
 S          2.5950335462        0.4322851848        0.2084838860
 O          1.9418853852        0.8532316611        1.4238658456
 O          1.8700506303        0.6549643933       -1.0224966904
 C          4.2151926048        1.1737640848        0.1199053923
 C          4.7369094830        1.5286308610       -1.1095031252
 C          6.0116340139        2.0707340727       -1.1656360537
 C          6.7400314617        2.2439069883        0.0016036251
 C          6.2029185568        1.8828860966        1.2285428448
 C          4.9286664368        1.3419325176        1.2918634984
 H          4.4649230143        1.0544334232        2.2209841952
 H          6.7710951073        2.0209600757        2.1341634671
 H          7.7317394347        2.6651836239       -0.0451400103
 H          6.4300508243        2.3547128513       -2.1177421116
 H          4.1297985633        1.3809015186       -1.9884649317
 H          3.9045404620       -1.3812958653       -0.1119998197
 H          3.4245084905       -3.5862406775       -0.7527730994
 H          1.6768150166       -5.2795881361       -1.1501113011
 H         -0.6677664619       -4.8032248238       -0.6017567878
 C         -1.6911577044       -2.4645595045        0.4881276610
 H         -1.8038716027       -2.4704623734        1.5831519551
 C         -2.7220385513       -3.3955569763       -0.1153174374
 C         -3.1342457904       -4.6421016182        0.6078258345
 C         -4.0769118861       -3.4810653357        0.5190355311
 H         -4.9417864517       -3.5628713824       -0.1219318032
 H         -4.2446715169       -2.8864872200        1.4052886580
 H         -3.3561338609       -5.5249045151        0.0274373293
 H         -2.6691441297       -4.8433505760        1.5609344297
 H         -2.6728171810       -3.4193857527       -1.1983202000
 O         -2.4650675242       -0.3633734170        2.2586263828
