  62
        -98.94652899
 C          1.4953930102        1.4175562367       -0.4265105102
 C          2.7778038285        1.3650385673        0.1741954202
 C          3.5838761326        0.1755604649       -0.1277999276
 C          3.0700525394       -0.7814956040       -0.9224472000
 C          3.7609361044       -2.0699537469       -1.2637304540
 C          3.4217027651       -3.1796272198       -0.2580556905
 C          3.5489040824       -2.7515168675        1.2035373516
 H          2.8103289294       -1.9746388134        1.4155910816
 H          3.2939548453       -3.6164397456        1.8200716365
 C          4.9429870399       -2.2411139504        1.5935783427
 H          5.2274729077       -2.6900584042        2.5476189490
 H          5.6761877000       -2.5635124997        0.8532227825
 C          5.0359437520       -0.7245479759        1.7690214658
 H          4.2462238371       -0.3835912651        2.4433579380
 H          5.9930632677       -0.4950488999        2.2450771341
 C          4.9572126603        0.0997029766        0.4778558717
 H          5.6780196333       -0.2837295459       -0.2472411322
 H          5.2332586971        1.1291196767        0.7246661324
 H          2.3938758126       -3.5048254388       -0.4292904042
 H          4.0808208904       -4.0289625798       -0.4470070603
 H          3.4371271969       -2.3801603603       -2.2584943971
 H          4.8362472139       -1.9018817819       -1.2812849178
 O          1.8372995522       -0.6963166185       -1.4810185747
 C          1.0163225781        0.3982531171       -1.2511792446
 O         -0.0804368662        0.3415568659       -1.8365459701
 O          3.2274407342        2.2720744770        0.9246098127
 C          0.6062853995        2.6106008448       -0.1131509062
 C         -0.5504783246        2.0965070306        0.7052876047
 C         -0.3690294835        1.8627966880        2.0657419671
 C         -1.3731332812        1.2935793205        2.8264832048
 C         -2.5743914564        0.9282610542        2.2428442522
 C         -2.7592097223        1.1475551746        0.8846258654
 C         -1.7618292067        1.7478299672        0.1282451143
 H         -1.9205064772        1.9049727528       -0.9264879416
 N         -3.9660327051        0.7419858003        0.2732811697
 S         -4.2959865889       -0.9008919301        0.3041197532
 O         -5.3973315067       -1.0869948699       -0.6134620955
 O         -4.5334483176       -1.3002443031        1.6688497619
 C         -2.8341710965       -1.7074152685       -0.3212006891
 C         -1.7881349359       -1.9717027208        0.5392159764
 C         -0.6387858051       -2.5551532094        0.0325217527
 C         -0.5558682702       -2.8626060096       -1.3157688444
 C         -1.6145873371       -2.5897141070       -2.1661517636
 C         -2.7637696085       -2.0008211726       -1.6675102743
 H         -3.6096580380       -1.7706476072       -2.2955893968
 H         -1.5409047207       -2.8217656925       -3.2164926156
 H          0.3442652150       -3.3062149868       -1.7117437856
 H          0.1919545331       -2.7572553942        0.6912485061
 H         -1.8876146669       -1.7214771366        1.5831699214
 H         -4.0444403870        1.0669436157       -0.6808561017
 H         -3.3586286925        0.4560077137        2.8120531372
 H         -1.2192083676        1.1248718450        3.8817285591
 H          0.5789665088        2.1215810897        2.5168333471
 H          1.2137245792        3.2707472384        0.5200603149
 C          0.1982795192        3.3684905964       -1.3581018129
 C         -0.3934165711        4.7386189230       -1.2201786176
 C          0.9887360854        4.5711136270       -1.7741996186
 H          1.1470596139        4.7434868149       -2.8282645728
 H          1.8265274135        4.8574445243       -1.1555085847
 H         -1.1854666555        5.0302418802       -1.8929312394
 H         -0.4953114489        5.1382274467       -0.2225043002
 H         -0.1778719270        2.7298440452       -2.1479050813
