  62
        -98.94835035
 C          0.8497578040        1.2958294141        0.0587915661
 C          1.7358285893        0.9605566102        1.1084129558
 C          2.5112977638       -0.2725444157        0.9236480164
 C          2.3170452887       -1.0113323830       -0.1843282292
 C          3.1060410524       -2.2366933988       -0.5419827301
 C          4.3444320667       -1.8742185349       -1.3747269848
 C          5.1843076644       -0.7441865454       -0.7799152088
 H          6.0440719466       -0.5966681103       -1.4369782389
 H          4.6030405423        0.1804683490       -0.7980291308
 C          5.6740745617       -1.0042293353        0.6513621100
 H          5.6051325023       -2.0683723862        0.8800118334
 H          6.7278159420       -0.7256430057        0.7187463590
 C          4.9336901781       -0.2076812387        1.7271015836
 H          4.9253285668        0.8518262015        1.4588122710
 H          5.4875714852       -0.3031002525        2.6649579722
 C          3.4890950537       -0.6443777677        2.0025448974
 H          3.4584548315       -1.7187325219        2.1968026154
 H          3.1504967170       -0.1257629600        2.9047706392
 H          4.9607986863       -2.7685518693       -1.4824721414
 H          4.0129838214       -1.5663174410       -2.3688205450
 H          3.4039518960       -2.7512645952        0.3695131095
 H          2.4680941878       -2.8955969297       -1.1310765106
 O          1.4139057434       -0.6875940335       -1.1439224381
 C          0.6605920587        0.4733929972       -1.0519662882
 O         -0.1225038909        0.6564314885       -2.0016427556
 H         -1.2817969197        0.4930833656        1.1768815483
 C         -1.9437203380        1.1608482586        0.6448156780
 C         -1.4321571308        2.3026248538        0.0421162441
 C         -2.3101222900        3.1554541477       -0.6161775232
 C         -3.6605756406        2.8597019172       -0.6786822047
 C         -4.1617804929        1.7082488042       -0.1004971541
 C         -3.2915114721        0.8516984056        0.5657045042
 N         -3.7659445275       -0.3255023464        1.1633739074
 S         -2.8162726496       -1.6801114794        1.3221766778
 O         -3.7632853555       -2.7350861426        1.6232291136
 O         -1.7924270580       -1.4699343205        2.3173145671
 C         -2.0605463564       -2.0439020294       -0.2542211144
 C         -2.5760946023       -1.5628220293       -1.4395226873
 C         -1.9878528752       -1.9533156695       -2.6321027045
 C         -0.9193490469       -2.8336696318       -2.6237001521
 C         -0.4223987563       -3.3203076243       -1.4254394563
 C         -0.9900606268       -2.9155770474       -0.2295084667
 H         -0.6199203117       -3.2520538293        0.7265918630
 H          0.4040119925       -4.0133930786       -1.4174489732
 H         -0.4663994939       -3.1367882189       -3.5544612765
 H         -2.3650473048       -1.5629163305       -3.5632050216
 H         -3.4077761167       -0.8776939810       -1.4363307521
 H         -4.7289888314       -0.5580698288        0.9715478537
 H         -5.2128246779        1.4704112049       -0.1603385031
 H         -4.3311196225        3.5300523839       -1.1942505865
 H         -1.9360320191        4.0513862362       -1.0835603317
 C          0.0464091481        2.5781164697        0.1535573412
 H          0.2447798090        2.9752940245        1.1611797225
 C          0.5455392410        3.5790648224       -0.8702247380
 C          0.5280656906        5.0481842503       -0.5735444827
 C          1.8287284306        4.3051253336       -0.6023838543
 H          2.5068839892        4.4776328370       -1.4246431328
 H          2.3239813394        4.1015566204        0.3361123657
 H          0.1472338911        5.3609271221        0.3870399921
 H          0.3154097678        5.7348473520       -1.3791144424
 H          0.3554641762        3.2578080463       -1.8883743411
 O          1.8789126509        1.6652993097        2.1456163609
