  62
        -98.94061072
 C          2.6418675449        1.2677231271       -0.2950329111
 C          2.2820330835        0.0744933938       -0.9668511646
 C          3.3315676517       -0.9521742309       -1.0521426869
 C          4.5415393129       -0.7076794665       -0.5171810263
 C          5.6813926277       -1.6833809751       -0.4874791804
 C          5.6592043162       -2.5224651656        0.7977498911
 C          4.2945532328       -3.1365730049        1.1109565748
 H          3.5844416335       -2.3372641157        1.3370999317
 H          4.4061368833       -3.7311819848        2.0203293067
 C          3.7229774351       -4.0179766451       -0.0083697509
 H          3.3251625108       -4.9328699796        0.4357874646
 H          4.5198486320       -4.3097316850       -0.6934933849
 C          2.5823299669       -3.3775718968       -0.8019252124
 H          1.8207262672       -3.0010188573       -0.1131333858
 H          2.1135646976       -4.1561438994       -1.4099613720
 C          2.9844726626       -2.2383998573       -1.7473870798
 H          2.1209093831       -2.0132455382       -2.3799922478
 H          3.8056171252       -2.5651351608       -2.3886072969
 H          5.9456580255       -1.8817696248        1.6349142547
 H          6.4038652633       -3.3151254744        0.7059249947
 H          5.6208063334       -2.3322487516       -1.3588620372
 H          6.6158473002       -1.1211949082       -0.5273748131
 O          4.8523836632        0.4553594571        0.1099573440
 C          3.9101465790        1.4587970042        0.2557836119
 O          4.3165471203        2.4589129694        0.8808793273
 H         -0.9812242452        1.7790311494       -0.7765075142
 C         -0.7577048704        1.5898564819        0.2613589581
 C          0.5066556067        1.8624301399        0.7549841523
 C          0.7745716803        1.5859139883        2.0935805675
 C         -0.2009621493        1.0520083806        2.9129693760
 C         -1.4641852785        0.7790858486        2.4159662268
 C         -1.7385952542        1.0440020120        1.0819444776
 N         -3.0225851578        0.7846885532        0.5648982866
 S         -3.7616690914       -0.6692974068        1.0073574663
 O         -4.3192536033       -0.5121117239        2.3280738383
 O         -2.8461034817       -1.7756052834        0.8384147774
 C         -5.0753804398       -0.7508085247       -0.1937086547
 C         -6.2784079675       -0.1317469438        0.0873084766
 C         -7.2880296498       -0.1690956636       -0.8612257609
 C         -7.0783608829       -0.8194378183       -2.0681559065
 C         -5.8656348039       -1.4370711931       -2.3354343640
 C         -4.8511548571       -1.4026331359       -1.3916313856
 H         -3.8954718871       -1.8758796754       -1.5540885891
 H         -5.7060457108       -1.9441537410       -3.2734703113
 H         -7.8655231568       -0.8481628405       -2.8049215194
 H         -8.2330793962        0.3076258459       -0.6568553958
 H         -6.3972471458        0.3538741501        1.0416709910
 H         -3.0449896019        0.8950839942       -0.4403676982
 H         -2.2308398963        0.3497182195        3.0404162077
 H          0.0216885863        0.8408974220        3.9484920740
 H          1.7661456553        1.7859927908        2.4776634029
 C          1.6284201993        2.3854861780       -0.1090606808
 H          2.1483406546        3.1748378217        0.4507538436
 C          1.1800597843        2.9468134992       -1.4413922583
 C          0.5181588736        4.2901499897       -1.4931851281
 C          1.9106580317        4.1195695200       -2.0198394996
 H          2.0671663981        4.1525148556       -3.0876224929
 H          2.7302666607        4.5277730002       -1.4466158992
 H          0.3898399983        4.8172397247       -0.5599413481
 H         -0.2819609389        4.4455436587       -2.2007514897
 H          0.8441922996        2.1833119209       -2.1326084894
 O          1.1491432517       -0.1278232975       -1.4782558938
