  62
        -98.93940162
 C          2.4426762419        1.2359044256       -0.0009882757
 C          3.1872323617        0.4951559875        0.9442260302
 C          3.8642776303       -0.7139513242        0.4448134862
 C          3.7294687194       -1.0483110510       -0.8504860533
 C          4.2772001687       -2.2679546538       -1.5385091525
 C          3.2305377163       -3.3952207802       -1.5551616152
 C          3.2287543148       -4.2917253148       -0.3172079032
 H          2.3607587538       -4.9507247529       -0.3958588545
 H          4.1211283468       -4.9210078300       -0.3287857559
 C          3.1667405254       -3.5568470290        1.0246312038
 H          2.4396607403       -2.7441981287        0.9633516354
 H          2.7985331246       -4.2605926425        1.7739261135
 C          4.5294452953       -3.0127481478        1.4798362770
 H          5.3113236097       -3.4605502137        0.8668783617
 H          4.7192739284       -3.3318101727        2.5066064957
 C          4.6691281016       -1.4824466055        1.4572382301
 H          5.7253941905       -1.2227008507        1.3332461523
 H          4.3579129623       -1.0744381810        2.4240769058
 H          3.4079427575       -4.0261986188       -2.4284504656
 H          2.2447154809       -2.9377618949       -1.6800921545
 H          4.4891732156       -1.9761322545       -2.5690896480
 H          5.1997642532       -2.5950323504       -1.0681951654
 O          2.9940454270       -0.3109768846       -1.7274722055
 C          2.3242116506        0.8347157730       -1.3317631978
 O          1.6790354372        1.3934953497       -2.2380526695
 O          3.2704613148        0.8205746610        2.1605738532
 C          1.6924152122        2.4741320718        0.4572626447
 C          0.2115172971        2.2581453549        0.2616687623
 C         -0.6212194690        3.1547298180       -0.3933214134
 C         -1.9641338360        2.8644033021       -0.5661501487
 C         -2.5055135016        1.6859192342       -0.0872535443
 C         -1.6831125827        0.7860322709        0.5786103363
 C         -0.3411769129        1.0810744341        0.7529509172
 H          0.2996788847        0.3750418522        1.2681448211
 N         -2.2255782676       -0.4145465394        1.0782465907
 S         -2.9998223860       -1.4162102158       -0.0296003023
 O         -2.9091636476       -2.7450796526        0.5365906751
 O         -2.4669183323       -1.2481659849       -1.3622333612
 C         -4.6944200611       -0.8744924591        0.0303358546
 C         -5.3401067433       -0.8927880177        1.2512771010
 C         -6.6600698162       -0.4761454296        1.3156321414
 C         -7.3087798720       -0.0539335952        0.1645660284
 C         -6.6474976885       -0.0452016235       -1.0540200956
 C         -5.3263328605       -0.4594423754       -1.1252727243
 H         -4.7683676496       -0.4633369817       -2.0481891711
 H         -7.1532089945        0.2829773017       -1.9478955085
 H         -8.3359863279        0.2705109473        0.2173137190
 H         -7.1777570712       -0.4815448048        2.2612407535
 H         -4.8001920374       -1.2317923743        2.1195118602
 H         -1.5636771920       -0.9530963281        1.6195481313
 H         -3.5485411540        1.4537586298       -0.2279533356
 H         -2.5980105583        3.5666230129       -1.0856742816
 H         -0.2169590088        4.0747642647       -0.7818008375
 H          1.8879022949        2.5516766022        1.5371825322
 C          2.2279667443        3.7136245173       -0.2258779875
 C          2.1159368087        5.0497137085        0.4438551375
 C          3.4498730473        4.3764873019        0.3334872473
 H          4.1782672299        4.7786479342       -0.3544317118
 H          3.8832681626        3.9460054577        1.2245268584
 H          1.9303132241        5.9190659988       -0.1684644387
 H          1.6448593132        5.0837762003        1.4144095252
 H          2.1328295246        3.6684114630       -1.3048498436
