  62
        -98.93486232
 C         -2.2393235646       -0.5616706381        0.0435982122
 C         -3.5172615131       -1.0546287123        0.3902487918
 C         -4.6208919850       -0.0761067133        0.4403114124
 C         -4.3511908360        1.2149812173        0.1707674925
 C         -5.3092372863        2.3755874156        0.1213928187
 C         -6.1656537370        2.3832430991       -1.1551852058
 C         -6.7391613123        1.0255922902       -1.5525317394
 H         -5.9200191538        0.3172120646       -1.6891159238
 H         -7.2297417925        1.1440796420       -2.5222750664
 C         -7.7610951589        0.4408030603       -0.5804971766
 H         -8.1497601188       -0.4755731348       -1.0318939618
 H         -8.5949382646        1.1383917375       -0.4751217750
 C         -7.2362771714        0.0961544705        0.8148835069
 H         -7.9917635056       -0.5277647962        1.3012766353
 H         -7.1325400260        0.9880213921        1.4268961949
 C         -5.9381220665       -0.7048495748        0.8274190583
 H         -6.0526236557       -1.5843647427        0.1837489886
 H         -5.7858769202       -1.1061269986        1.8366978773
 H         -5.5389334908        2.7336663519       -1.9789897375
 H         -6.9778593782        3.0996374837       -1.0208903092
 H         -4.7013965016        3.2829413849        0.1375784838
 H         -5.9356159764        2.3807516489        1.0084101738
 O         -3.0967634430        1.6471449957       -0.1502198256
 C         -2.0159169091        0.7882398245       -0.2216940493
 O         -0.9379976897        1.3381030751       -0.5223065483
 O         -3.7365379836       -2.2689371333        0.6504686320
 C         -1.0716223075       -1.5283176881       -0.0307648430
 C          0.0110675790       -1.0961050120        0.9262985985
 C         -0.3213367207       -0.9047024751        2.2655648339
 C          0.6294167858       -0.4887936345        3.1760189444
 C          1.9303858602       -0.2495576907        2.7687896456
 C          2.2770186940       -0.4506397568        1.4384792655
 C          1.3212461637       -0.8835715361        0.5286082676
 H          1.6124092438       -1.0247511082       -0.4976200507
 N          3.6093087900       -0.2627794559        1.0199803583
 S          3.9434900233        0.5414554068       -0.4274981844
 O          3.4597762346        1.9038362265       -0.3709213991
 O          3.4959484521       -0.2604503595       -1.5364869825
 C          5.7268202322        0.5270636841       -0.3666903813
 C          6.4120986712        1.6769862296       -0.0246188220
 C          7.7966361580        1.6402560079        0.0353005489
 C          8.4683065462        0.4597823230       -0.2436188179
 C          7.7666397333       -0.6867825998       -0.5861302261
 C          6.3828222763       -0.6561452621       -0.6493394020
 H          5.7963634412       -1.5186636062       -0.9192666080
 H          8.2925537179       -1.6021603568       -0.8045801489
 H          9.5455136896        0.4336703315       -0.1964310526
 H          8.3444730586        2.5308407536        0.2981415563
 H          5.8476336100        2.5734894671        0.1762111819
 H          4.1739553453        0.1459002777        1.7543601725
 H          2.6715391724        0.0886802403        3.4774653925
 H          0.3557312553       -0.3391824887        4.2097900688
 H         -1.3420679055       -1.0789512936        2.5787739653
 H         -1.4701256897       -2.4949768318        0.3122435617
 C         -0.5976471883       -1.6777451353       -1.4604114250
 C          0.0848262954       -2.9378507177       -1.8985025767
 C         -1.3060718159       -2.6368487017       -2.3675367852
 H         -1.4554417971       -2.3553120350       -3.3991437820
 H         -2.1226548691       -3.2045898880       -1.9457683834
 H          0.8970236437       -2.8600301040       -2.6055331711
 H          0.2137709331       -3.7160175011       -1.1615376879
 H         -0.2597979136       -0.7400092662       -1.8897773438
