  62
        -98.94077126
 C          2.5211377622        0.3191183133        0.0323384870
 C          2.1405804644        1.3308498942       -0.8760912284
 C          1.3708168175        2.4663131619       -0.3344493282
 C          1.1048747780        2.4950427803        0.9847770769
 C          0.3036377911        3.5060952137        1.7631657610
 C         -1.2065031807        3.3297806912        1.5620218855
 C         -1.6473141235        3.2538718124        0.1032177309
 H         -1.2268807109        2.3535749884       -0.3497480854
 H         -2.7341988926        3.1287869639        0.0940350776
 C         -1.3092601860        4.4759218669       -0.7495621150
 H         -1.7143761695        5.3695568613       -0.2697816625
 H         -1.8253176409        4.3465538626       -1.7040639105
 C          0.1760167007        4.7074678724       -1.0498857556
 H          0.6745745576        5.2275910932       -0.2356209203
 H          0.2318454276        5.3680742701       -1.9198053853
 C          0.9535971465        3.4449586635       -1.4054061504
 H          0.3864839270        2.8649044005       -2.1437159958
 H          1.8814678235        3.7316190043       -1.9148645003
 H         -1.5049018126        2.3946625837        2.0434126321
 H         -1.7184349629        4.1557062930        2.0604771402
 H          0.5351601080        3.3380702428        2.8175809492
 H          0.6089154969        4.5167908041        1.5097009433
 O          1.5431304568        1.5221809342        1.8348539785
 C          2.1941878451        0.3914529396        1.3855842585
 O          2.4492007558       -0.4463746184        2.2736241375
 O          2.4184383948        1.2846608887       -2.1076654866
 C          3.1449050693       -0.9587893944       -0.5022276401
 C          2.1588909134       -2.0795405700       -0.2705070655
 C          2.4900585214       -3.3192699014        0.2590956255
 C          1.5005850555       -4.2552245779        0.5121115666
 C          0.1692252917       -3.9699260835        0.2701339960
 C         -0.1687291418       -2.7382139661       -0.2799786263
 C          0.8278373512       -1.8257770952       -0.5755374448
 H          0.5533679818       -0.8756605000       -1.0099557227
 N         -1.5053566320       -2.3853698143       -0.5454578955
 S         -1.9144257261       -0.7617515364       -0.2794548109
 O         -1.5937986126       -0.0070500553       -1.4654143774
 O         -1.3420369094       -0.2990057066        0.9632980743
 C         -3.6865421821       -0.8971710289       -0.1313754843
 C         -4.2643810131       -0.9142149477        1.1236670697
 C         -5.6401187589       -1.0498218317        1.2268355397
 C         -6.4095889371       -1.1689609749        0.0793062783
 C         -5.8153212236       -1.1493634931       -1.1739453260
 C         -4.4407483424       -1.0121646692       -1.2839512753
 H         -3.9341432520       -0.9813774502       -2.2344083941
 H         -6.4169272649       -1.2391473490       -2.0639219899
 H         -7.4796621349       -1.2746888214        0.1623372211
 H         -6.1044925789       -1.0613661403        2.1997029538
 H         -3.6250614288       -0.8111956006        1.9860557320
 H         -2.1677807947       -3.0080498944       -0.1022144276
 H         -0.6011309842       -4.6881465894        0.5064250815
 H          1.7693848048       -5.2134217756        0.9305603427
 H          3.5178802064       -3.5461880317        0.4910279237
 H          3.2496529356       -0.8044509207       -1.5869273408
 C          4.5112934612       -1.2121921861        0.0946477919
 C          5.5340773320       -1.9953433310       -0.6717831524
 C          5.7001150974       -0.5168126168       -0.4956903437
 H          6.4694294577       -0.1573205147        0.1708361627
 H          5.5251424513        0.1245977098       -1.3472135034
 H          6.1950960766       -2.6517959308       -0.1264578920
 H          5.2544524584       -2.3598383977       -1.6486872529
 H          4.4786539064       -1.3222674422        1.1725223808
