  62
        -98.93647619
 C          1.8839073652        0.6111056295       -0.3968795227
 C          2.9401539634        1.0072205186        0.4578111006
 C          4.2209679468        0.2923606769        0.3123103015
 C          4.3063591847       -0.7155019130       -0.5743733355
 C          5.4910993475       -1.5886761205       -0.9023889205
 C          6.3169440837       -2.1074000835        0.2848748215
 C          7.7003662627       -1.4632759499        0.3919845540
 H          8.3603582713       -2.1421328795        0.9366990851
 H          8.1095080559       -1.3496874996       -0.6141222449
 C          7.7350733308       -0.1134567223        1.1066362102
 H          7.5689862357       -0.2662918293        2.1752486049
 H          8.7411926696        0.2962091360        0.9899144990
 C          6.7239388835        0.9188710177        0.6040090795
 H          6.6577280508        0.8906018612       -0.4830383135
 H          7.0960765339        1.9092446450        0.8748072985
 C          5.3256753776        0.7607994796        1.2197259899
 H          5.3731218541        0.0985943803        2.0890636106
 H          4.9798550629        1.7275102014        1.5986688864
 H          6.4558630193       -3.1812262966        0.1488036828
 H          5.7615454781       -1.9702071924        1.2113790958
 H          6.1393102579       -1.0463848928       -1.5954607805
 H          5.0752381940       -2.4305022622       -1.4608509366
 O          3.2546735688       -1.0790706433       -1.3622193824
 C          2.0297199368       -0.4357309043       -1.3056276020
 O          1.1839872542       -0.8849078840       -2.1026685937
 O          2.8215801808        1.9296954151        1.3082410240
 C          0.5536393216        1.3351634221       -0.2734211390
 C         -0.4563268230        0.3914383041        0.3295187396
 C         -0.4816995063        0.2097503836        1.7093878713
 C         -1.3791245749       -0.6659659047        2.2917074208
 C         -2.2701691918       -1.3801055785        1.5096582587
 C         -2.2461032203       -1.2110571161        0.1320315682
 C         -1.3521213304       -0.3231444747       -0.4507051515
 H         -1.3354086408       -0.2135508040       -1.5233802951
 N         -3.1635665423       -1.9244308581       -0.6646271467
 S         -4.7791173331       -1.7137885558       -0.2731577124
 O         -5.1185280384       -2.5617564918        0.8421185324
 O         -5.5120550981       -1.9541584710       -1.4962323777
 C         -4.8940007227        0.0000593651        0.2101521482
 C         -4.6820133898        0.9619114395       -0.7577597212
 C         -4.6942482008        2.2971051533       -0.3900759003
 C         -4.9118460779        2.6457475007        0.9342268665
 C         -5.1258245970        1.6685636834        1.8935452017
 C         -5.1141106173        0.3309527585        1.5313867589
 H         -5.2728778523       -0.4604481491        2.2453157732
 H         -5.2956992615        1.9432009019        2.9221334055
 H         -4.9147359909        3.6862052453        1.2186673263
 H         -4.5284468153        3.0596441723       -1.1340921982
 H         -4.5209731195        0.6554367270       -1.7789043516
 H         -3.0139436658       -1.7963323735       -1.6550156081
 H         -2.9800356428       -2.0669774738        1.9417104086
 H         -1.3870044320       -0.7943533609        3.3633262090
 H          0.2200102338        0.7612208390        2.3193429838
 H          0.7327205254        2.1439385278        0.4474984767
 C          0.1046155199        1.9410911998       -1.5870927729
 C         -1.0407202231        2.9082369661       -1.5894014985
 C          0.3526108762        3.3950389129       -1.8483750191
 H          0.6161467196        3.6995897435       -2.8502750219
 H          0.8482569847        3.9639747176       -1.0757060218
 H         -1.7355202526        2.8804789047       -2.4147483580
 H         -1.4937927296        3.1416027433       -0.6378635129
 H          0.2000275601        1.2646744462       -2.4278007470
