  62
        -98.94946557
 C         -2.0470751998       -0.3800407523       -0.3165782485
 C         -1.3874058128       -1.3042785011       -1.1595537972
 C         -1.0191757278       -2.5846747436       -0.5447296019
 C         -1.2704243046       -2.7921820088        0.7608065860
 C         -0.9565857654       -4.0437551399        1.5351104013
 C          0.4938674610       -4.1146940970        2.0320737522
 C          1.5315519688       -4.4413544551        0.9575749326
 H          2.4585706518       -4.6957737239        1.4753774940
 H          1.2135125401       -5.3246071742        0.4017269662
 C          1.8141669718       -3.2885184895       -0.0155260128
 H          1.4708845180       -2.3505790185        0.4291557552
 H          2.8936145708       -3.1905516982       -0.1583872114
 C          1.1889712154       -3.4618536690       -1.3997613815
 H          1.4430736105       -2.5874201796       -2.0024394214
 H          1.6221630841       -4.3392798980       -1.8857312442
 C         -0.3377217932       -3.6138181265       -1.3980288927
 H         -0.6946354662       -3.4790024703       -2.4224795555
 H         -0.6119454925       -4.6142646961       -1.0628393061
 H          0.7488716197       -3.1609823686        2.5018386834
 H          0.5392885437       -4.8897378236        2.8010849597
 H         -1.6194114352       -4.0446602340        2.4032026325
 H         -1.1786889983       -4.9212966109        0.9266007355
 O         -1.8811258253       -1.8672157291        1.5463520962
 C         -2.2744110153       -0.6405426032        1.0351667335
 O         -2.8212130218        0.1095723065        1.8672684539
 O         -1.1205490678       -1.0727893458       -2.3705547653
 C         -2.4571586861        0.9751588025       -0.8691396264
 C         -1.7945658947        2.0567932811       -0.0516029702
 C         -2.4569562827        3.1577086005        0.4727640514
 C         -1.7801841860        4.0531788707        1.2841407946
 C         -0.4486389765        3.8619862147        1.6023126364
 C          0.2293050699        2.7725746820        1.0632558667
 C         -0.4391088951        1.9098387401        0.2136322767
 H          0.0831137275        1.0636141643       -0.2009456351
 N          1.5801948591        2.5490553081        1.3542241297
 S          2.3068850681        1.0471472112        1.2385016566
 O          1.3920662802       -0.0411891222        1.4885212419
 O          3.4428304315        1.1417185462        2.1318071021
 C          2.9057003295        1.0273790493       -0.4388481171
 C          2.3097248859        0.2357943682       -1.3981764118
 C          2.7920299817        0.2741139336       -2.6972914910
 C          3.8596293039        1.0988707211       -3.0139780933
 C          4.4531360135        1.8858316532       -2.0379213358
 C          3.9728744728        1.8525245809       -0.7394640837
 H          4.4101934719        2.4388876097        0.0513666861
 H          5.2853344540        2.5245187164       -2.2862886846
 H          4.2300876032        1.1259031946       -4.0265489946
 H          2.3210038090       -0.3369361430       -3.4512983648
 H          1.4787300686       -0.3975494695       -1.1281994494
 H          1.9647633806        3.1107529375        2.0981008387
 H          0.0631503985        4.5413061752        2.2667723800
 H         -2.3061294431        4.9014808746        1.6957150953
 H         -3.5044709842        3.3050938839        0.2670473236
 H         -2.0585588908        1.0115615391       -1.8939146988
 C         -3.9652814917        1.0943727427       -0.9247479800
 C         -4.6164686980        1.9827221545       -1.9414346754
 C         -4.6985412470        0.4936010142       -2.0851403838
 H         -5.6441140584        0.0062631958       -1.9006010777
 H         -4.1051049619        0.0177639552       -2.8520378009
 H         -5.5104090419        2.5186170800       -1.6601744632
 H         -3.9723074509        2.5220845763       -2.6190268761
 H         -4.4231419081        1.0112853238        0.0548942084
