  62
        -98.93939079
 C         -2.6561083377       -1.2910156159       -0.1411227197
 C         -2.6299154658       -0.1589860693       -0.9910405737
 C         -3.8974642819        0.5755171663       -1.1153468538
 C         -4.9817607648        0.1408258726       -0.4481061420
 C         -6.3139963109        0.8315190265       -0.4339856583
 C         -6.4078156312        1.8282137720        0.7300448426
 C         -5.2067180772        2.7680436466        0.8381683100
 H         -4.3178022626        2.1855200081        1.0921768866
 H         -5.3966280500        3.4430430056        1.6756123838
 C         -4.9276390140        3.5902498897       -0.4277976918
 H         -4.7284484813        4.6237338281       -0.1366530953
 H         -5.8116409649        3.5980850277       -1.0665118830
 C         -3.7206442071        3.1159032975       -1.2392554491
 H         -2.8521363011        3.0176433599       -0.5825209010
 H         -3.4853213374        3.8853116402       -1.9794802762
 C         -3.9043092182        1.7938449966       -1.9949545583
 H         -3.0530374764        1.6783948677       -2.6721167770
 H         -4.8171956237        1.8343786180       -2.5924167790
 H         -6.4856348902        1.2647845977        1.6628237248
 H         -7.3207687621        2.4143797883        0.6101807221
 H         -6.4603876486        1.3475583963       -1.3807417464
 H         -7.0927054937        0.0759899087       -0.3172889428
 O         -4.9724189059       -0.9633850188        0.3421570452
 C         -3.8106751265       -1.6930831969        0.5306924118
 O         -3.9323057436       -2.6639506664        1.3053775671
 H          1.0907113838       -1.2505544699       -0.7995967695
 C          0.8353018508       -0.8548379311        0.1707105052
 C         -0.3712628935       -1.1943155909        0.7587750435
 C         -0.6739506920       -0.6665694668        2.0119265984
 C          0.2040396927        0.1875471547        2.6498702527
 C          1.3999355497        0.5424221728        2.0494559839
 C          1.7128794150        0.0204598544        0.8024434124
 N          2.9087052150        0.3977124687        0.1673727966
 S          4.3108650744        0.5136178743        1.0980778085
 O          4.4716879096       -0.6742705061        1.9074793256
 O          4.2862007847        1.7632656275        1.8162709056
 C          5.5523328057        0.5746555951       -0.1781399352
 C          6.2420534687       -0.5752166820       -0.5121450378
 C          7.1867341865       -0.5193561899       -1.5249669483
 C          7.4213331993        0.6776133893       -2.1847226179
 C          6.7205772533        1.8234480121       -1.8380833859
 C          5.7760559134        1.7751471534       -0.8253771082
 H          5.2141637733        2.6411945249       -0.5168849375
 H          6.9072662492        2.7523999003       -2.3523357159
 H          8.1567706818        0.7185493228       -2.9726347601
 H          7.7352012912       -1.4074197797       -1.7949138208
 H          6.0322916928       -1.4816148887        0.0328846031
 H          3.0726582576       -0.1262668867       -0.6811932545
 H          2.0920205461        1.2122708103        2.5336477353
 H         -0.0437173391        0.5867170317        3.6224047462
 H         -1.6134355163       -0.9360027645        2.4765906279
 C         -1.3886503081       -2.0942094490        0.0991190085
 H         -1.6597828099       -2.8816889995        0.8164183189
 C         -0.9103238868       -2.7443267539       -1.1811168087
 C         -0.0042109370       -3.9361868175       -1.1182834342
 C         -1.4317293251       -4.1009318971       -1.5436316457
 H         -1.6403994682       -4.3120441798       -2.5816868281
 H         -2.1222466268       -4.5681520517       -0.8565676207
 H          0.2789830798       -4.2963540343       -0.1406358821
 H          0.7669354235       -4.0398443083       -1.8665934149
 H         -0.7698664057       -2.0341384641       -1.9872315948
 O         -1.6067649784        0.2218312760       -1.6169325102
