  62
        -98.94569925
 C         -0.9786983180       -1.1525812278       -0.2557549458
 C         -2.0263194359       -1.2254355482        0.7001705372
 C         -2.9164870673       -0.0620116607        0.7870292580
 C         -2.6961312950        0.9909019637       -0.0205976143
 C         -3.5655872286        2.2121233110       -0.0918336699
 C         -4.6697015000        2.0464042703       -1.1457851770
 C         -5.4435430072        0.7330511790       -1.0321174698
 H         -6.2144715091        0.7418034818       -1.8058572437
 H         -4.7713697596       -0.0977103435       -1.2589125083
 C         -6.0961838397        0.4965916777        0.3370367034
 H         -6.1630379601        1.4379413935        0.8835617288
 H         -7.1164549546        0.1394145072        0.1815767937
 C         -5.3871611377       -0.5444606237        1.2052331666
 H         -5.2373660859       -1.4609686776        0.6289457941
 H         -6.0427219614       -0.7904062049        2.0449113153
 C         -4.0350545518       -0.1159409616        1.7893489127
 H         -4.1427309856        0.8435983122        2.2985766230
 H         -3.7402185730       -0.8670597413        2.5277069117
 H         -5.3614150849        2.8861301593       -1.0566571790
 H         -4.2113568954        2.0872886044       -2.1366006754
 H         -4.0080807870        2.3943207629        0.8854715983
 H         -2.9431962635        3.0639625163       -0.3676839052
 O         -1.6763496138        1.0340277469       -0.9117450102
 C         -0.7887103543       -0.0236839325       -1.0532139392
 O          0.0890344718        0.1819022536       -1.9136994171
 H          1.9931032025       -0.6270174614       -0.8097864702
 C          2.1295443880       -1.1952412152        0.0967565753
 C          1.1808868147       -2.1344838723        0.4790539395
 C          1.3783964329       -2.8474388179        1.6565329079
 C          2.5023449698       -2.6292898630        2.4326283831
 C          3.4422441544       -1.6883124500        2.0550382821
 C          3.2504584206       -0.9649433551        0.8816723916
 N          4.1867286518       -0.0008858291        0.4907764866
 S          3.7975805991        1.2824410850       -0.4953252505
 O          3.7008015401        0.8494117679       -1.8657678865
 O          4.8463102545        2.2480338097       -0.2274217068
 C          2.2503603458        1.9659325467        0.0747035358
 C          1.4759853692        2.6474927003       -0.8410708308
 C          0.3145029820        3.2681661220       -0.4110080096
 C         -0.0569494308        3.1888798770        0.9213903295
 C          0.7274915861        2.4946748494        1.8282972465
 C          1.8981017531        1.8847533226        1.4068620702
 H          2.5216187842        1.3463333475        2.1019202137
 H          0.4312205296        2.4259630662        2.8628584609
 H         -0.9646576890        3.6662001771        1.2562836044
 H         -0.2986968212        3.7990897655       -1.1216388711
 H          1.7856929467        2.6640680517       -1.8734814837
 H          4.8928456983        0.2327783276        1.1722222892
 H          4.3182863999       -1.5098937971        2.6595652114
 H          2.6448476818       -3.1912722752        3.3429494867
 H          0.6336764740       -3.5652721009        1.9670996984
 C         -0.0617489164       -2.3617748808       -0.3475329832
 H         -0.6247316902       -3.1816606811        0.1196585459
 C          0.2816114860       -2.7695476223       -1.7654894669
 C          0.7021806843       -4.1834511412       -2.0288178645
 C         -0.6345390379       -3.6981212946       -2.5020828021
 H         -0.7849319476       -3.5407819634       -3.5596227405
 H         -1.5158151305       -4.0470899612       -1.9834370066
 H          1.4745763862       -4.3616087514       -2.7612195416
 H          0.7253205751       -4.8633730278       -1.1905403533
 H          0.7608458517       -1.9878398099       -2.3403737309
 O         -2.2117104895       -2.2266734611        1.4424589257
