  62
        -98.93606514
 C          2.4852480853        0.1319873363       -0.5969800429
 C          2.1830842413        0.6525036721        0.6850437812
 C          1.7732297877        2.0646869950        0.7200785314
 C          1.7010958984        2.7617611798       -0.4274780658
 C          1.3005726478        4.2048865795       -0.5370132409
 C         -0.2038543111        4.3656293374       -0.7884676615
 C         -1.0842399493        3.5716483034        0.1765180960
 H         -2.1230683755        3.8175387824       -0.0574605099
 H         -0.9611789486        2.5029910268       -0.0155203709
 C         -0.8152238261        3.8471562144        1.6625542379
 H         -0.2837254749        4.7931702194        1.7770970849
 H         -1.7739523953        3.9482048241        2.1753025932
 C         -0.0432512332        2.7344808824        2.3753509401
 H         -0.4906335886        1.7692394456        2.1255247371
 H         -0.1453849063        2.8826597070        3.4540084169
 C          1.4570359082        2.6589223320        2.0633988962
 H          1.9076455462        3.6491865246        2.1645871164
 H          1.9182457715        1.9929784044        2.7985834414
 H         -0.4504886998        5.4273407367       -0.7196154057
 H         -0.4241555230        4.0291183376       -1.8045709617
 H          1.5824129608        4.7203530841        0.3793508805
 H          1.8468419306        4.6453167554       -1.3735006715
 O          1.9819544685        2.2207893650       -1.6428842393
 C          2.3626934181        0.8947520398       -1.7561880149
 O          2.5767985334        0.5189485291       -2.9294165918
 O          2.2688229293       -0.0153028376        1.7469317613
 C          2.9144999808       -1.3231270037       -0.7622387224
 C          1.9199421407       -2.1850744090       -0.0199713838
 C          2.1606506306       -3.1273563542        0.9708715902
 C          1.1103485578       -3.8043461747        1.5708835689
 C         -0.2013109697       -3.5496819986        1.2232036307
 C         -0.4579801598       -2.6154920754        0.2261894823
 C          0.5951326247       -1.9739455706       -0.3983772702
 H          0.3761775557       -1.2526137256       -1.1743735301
 N         -1.7738986726       -2.3068192712       -0.1705077625
 S         -2.0803178523       -0.6702175842       -0.4788424385
 O         -1.7589879665       -0.3898523477       -1.8575032563
 O         -1.4333078812        0.1505481060        0.5163910469
 C         -3.8504587459       -0.6201202724       -0.2669770644
 C         -4.6445128555       -1.2027079325       -1.2371306019
 C         -6.0200634218       -1.1938919876       -1.0704715443
 C         -6.5756769156       -0.6049160234        0.0560768417
 C         -5.7662118221       -0.0219092252        1.0191058782
 C         -4.3889406258       -0.0296043881        0.8599528039
 H         -3.7188167832        0.4141967560        1.5787478870
 H         -6.2004405488        0.4381749375        1.8919877840
 H         -7.6467088633       -0.5982925763        0.1826379056
 H         -6.6525543920       -1.6439712305       -1.8184411029
 H         -4.1674525081       -1.6380624660       -2.0997076399
 H         -2.4650862814       -2.6904922678        0.4609309872
 H         -1.0157121711       -4.0580009166        1.7166829999
 H          1.3237672584       -4.5279091386        2.3433272464
 H          3.1573297836       -3.3334138432        1.3151869308
 H          2.7737281062       -1.5422592838       -1.8352033148
 C          4.4135767494       -1.4091105753       -0.5178409430
 C          5.0666295506       -1.5734162947        0.8182107705
 C          5.1835829528       -2.6587768872       -0.2121400656
 H          6.1384461752       -2.7841299196       -0.7013843329
 H          4.6446359111       -3.5818983982       -0.0788367884
 H          5.9398374307       -0.9715591565        1.0255330409
 H          4.4278193982       -1.7052657176        1.6760245843
 H          4.9069632176       -0.7148019490       -1.1960375195
