  62
        -98.93414316
 C         -2.4410498303       -1.1570326262        0.0331625366
 C         -2.6205623903        0.0568045259       -0.6671923637
 C         -4.0066584062        0.5537509105       -0.7892139486
 C         -5.0048394997       -0.1693655163       -0.2481165090
 C         -6.4737532355        0.1577564045       -0.2086654133
 C         -6.8110566607        1.2321718143        0.8387273915
 C         -5.8458479636        2.4141705090        0.8834230771
 H         -6.1223003548        3.0361914576        1.7389185088
 H         -4.8345097888        2.0454584261        1.0652283103
 C         -5.8459446825        3.3023991116       -0.3583732054
 H         -5.1718969640        4.1392908661       -0.1586760812
 H         -6.8481909802        3.7108354671       -0.5064145686
 C         -5.3989674137        2.6329266908       -1.6592259784
 H         -6.1856114361        2.0027313231       -2.0650902122
 H         -5.2285924397        3.4271264884       -2.3920717410
 C         -4.0934807853        1.8495823125       -1.5590631783
 H         -3.7509734217        1.6125691952       -2.5738533556
 H         -3.3161723692        2.4981440550       -1.1389330065
 H         -6.7995464217        0.7575211184        1.8228898460
 H         -7.8235258821        1.5926197116        0.6498593221
 H         -6.8155975115        0.4551580186       -1.1954574881
 H         -6.9934970792       -0.7645100122        0.0598239726
 O         -4.7815762413       -1.3412957365        0.4142779473
 C         -3.5136781008       -1.8612790588        0.5770267286
 O         -3.4690665097       -2.9330048612        1.2153988952
 H          1.4748568644       -0.8288961876       -0.4963753729
 C          1.0976739342       -0.3877647075        0.4106858122
 C         -0.1540698418       -0.7279724158        0.8965307867
 C         -0.5964429952       -0.1320575060        2.0755080734
 C          0.1904238719        0.7870345687        2.7410693792
 C          1.4417234716        1.1222804120        2.2539623778
 C          1.8932825363        0.5331236757        1.0794925040
 N          3.1460017196        0.8756971032        0.5462978398
 S          4.0375493817       -0.2985796965       -0.2732585382
 O          3.5645006147       -0.3912179814       -1.6312360410
 O          4.0520801347       -1.5297902488        0.4846440964
 C          5.6515256392        0.4603984301       -0.2517247349
 C          6.5768421676        0.0664566288        0.6962328201
 C          7.8172149286        0.6847920417        0.7199651973
 C          8.1084182854        1.6830698086       -0.1974321939
 C          7.1696950542        2.0672392892       -1.1437143518
 C          5.9282915041        1.4522230952       -1.1739379367
 H          5.1710790743        1.7107103566       -1.8958383905
 H          7.4007068542        2.8418243467       -1.8571104121
 H          9.0740888104        2.1630206465       -0.1770015039
 H          8.5503084282        0.3859481073        1.4517846820
 H          6.3088559918       -0.7195680958        1.3838165230
 H          3.7207904316        1.3981382909        1.1930672548
 H          2.0578090584        1.8401778586        2.7737669330
 H         -0.1693304647        1.2424016138        3.6516812809
 H         -1.5720526757       -0.4001043677        2.4594220805
 C         -1.0481399564       -1.7321117099        0.2103454453
 H         -1.1590172161       -2.5996778806        0.8783910437
 C         -0.5072181011       -2.2120552456       -1.1199389831
 C          0.5126993490       -3.3084137082       -1.1667426471
 C         -0.8918406853       -3.5711372376       -1.6184825529
 H         -1.0792866843       -3.6996039948       -2.6739239558
 H         -1.5306553945       -4.1684630473       -0.9840210676
 H          1.2958439075       -3.2506585348       -1.9083467337
 H          0.8352077192       -3.7312081872       -0.2268213104
 H         -0.4292311548       -1.4142723626       -1.8505697458
 O         -1.6688570983        0.7123248391       -1.1681932991
