  62
        -98.93863058
 C         -2.8005875896       -0.1212168231        0.0834083803
 C         -2.1319510566       -0.8656739112        1.0857797885
 C         -1.8050338786       -2.2585018798        0.7425801385
 C         -2.1394443308       -2.7441958552       -0.4650296509
 C         -1.8402618787       -4.1335054645       -0.9477190817
 C         -0.5079739213       -4.2028927464       -1.7058254377
 C          0.6678451974       -3.5523801656       -0.9761286775
 H          1.5590118540       -3.7312035625       -1.5831755658
 H          0.5236917326       -2.4693310264       -0.9463029845
 C          0.9090311729       -4.0747839705        0.4470943143
 H          0.4299536629       -5.0466894414        0.5732712043
 H          1.9826133652       -4.2224087473        0.5837418039
 C          0.4418026378       -3.1278380803        1.5545760555
 H          0.9005861033       -3.4455925756        2.4948665569
 H          0.7940446516       -2.1159642947        1.3353399893
 C         -1.0745837756       -3.0647544887        1.7792755768
 H         -1.4823155712       -4.0754543899        1.8449209392
 H         -1.2520257732       -2.5584749876        2.7326885980
 H         -0.6290040840       -3.6986161436       -2.6675593489
 H         -0.2808909599       -5.2535794666       -1.8991158266
 H         -1.8186374312       -4.8087638090       -0.0942129812
 H         -2.6435685412       -4.4397561848       -1.6205675439
 O         -2.7852566557       -2.0032338105       -1.4022098466
 C         -3.1006622480       -0.6780188450       -1.1629944694
 O         -3.6611009120       -0.1055219093       -2.1203690112
 H         -0.6207941209        1.1491782196        1.0932793800
 C         -0.7182925714        1.8977650389        0.3207762457
 C         -1.9726245131        2.1729438318       -0.2062110154
 C         -2.0744030241        3.1436715927       -1.1946297316
 C         -0.9461273984        3.8012929561       -1.6570223974
 C          0.3072830504        3.4899746672       -1.1591855526
 C          0.4128442691        2.5321504576       -0.1614430783
 N          1.7020821773        2.1302355964        0.2956133518
 S          2.2743085274        0.9376758994       -0.7731584568
 O          2.5234193658        1.5776183663       -2.0406572189
 O          1.3681120281       -0.1896764140       -0.7950054645
 C          3.8195922824        0.4755668537       -0.0142149413
 C          3.9456480633       -0.7625077635        0.5845768067
 C          5.1475439321       -1.0932090903        1.1913417450
 C          6.1938721587       -0.1835835506        1.1908076562
 C          6.0509545682        1.0563607056        0.5851536716
 C          4.8531044884        1.3928015523       -0.0242950600
 H          4.6973420654        2.3399136511       -0.5130383552
 H          6.8676462525        1.7599799132        0.5860476266
 H          7.1274103963       -0.4436120292        1.6642790799
 H          5.2607123155       -2.0569901295        1.6610236758
 H          3.1064301726       -1.4396154375        0.5567677755
 H          1.6226362526        1.6890896519        1.2055685251
 H          1.1992858197        3.9544468766       -1.5461807776
 H         -1.0419298998        4.5466872263       -2.4319532008
 H         -3.0418064397        3.3591218929       -1.6248900073
 C         -3.1572103310        1.3517275415        0.2352403839
 H         -3.9727371194        1.5302048577       -0.4831223643
 C         -3.6758346383        1.7131907175        1.6194672802
 C         -2.9419934387        2.6092584610        2.5674868924
 C         -4.1774107273        3.1028861220        1.8808510848
 H         -5.0804443016        3.2275429186        2.4586262113
 H         -4.0521724301        3.8293156162        1.0918643928
 H         -2.9894080854        2.3683799223        3.6184267945
 H         -1.9915960542        3.0143378438        2.2570280703
 H         -4.2386217649        0.9005705745        2.0662629071
 O         -1.8136965224       -0.4123330273        2.2169740138
