  62
        -98.94227361
 C          1.2321374964        1.1136029635        0.0598582599
 C          1.5783936525        0.0263240407        0.8932635708
 C          2.6229160393       -0.8817409058        0.3922271192
 C          3.1432642239       -0.6648642329       -0.8280721073
 C          4.2404421825       -1.4383629487       -1.5058229314
 C          5.6109761805       -0.7959385844       -1.2310861093
 C          6.3017674321       -1.2715645956        0.0463872230
 H          6.6387802722       -2.3011677043       -0.0907313420
 H          7.1902004782       -0.6512921984        0.1850164413
 C          5.4497146447       -1.2007666172        1.3161141121
 H          6.1257340620       -1.1990327740        2.1732606469
 H          4.8979804204       -0.2592606632        1.3362477766
 C          4.4747888497       -2.3795646208        1.4557351349
 H          4.7403513436       -3.1507950508        0.7329004478
 H          4.5898780162       -2.8295211499        2.4440736903
 C          2.9892875366       -2.0209404561        1.3040903873
 H          2.5828151702       -1.7370633846        2.2802369535
 H          2.4346090064       -2.9103320089        0.9837165648
 H          6.2723968011       -1.0101497473       -2.0729953484
 H          5.4703620169        0.2873179921       -1.1931580118
 H          4.2230385862       -2.4800312619       -1.1987801774
 H          4.0386678141       -1.3866892517       -2.5779628674
 O          2.7504379426        0.3709770854       -1.6197256381
 C          1.7853203273        1.2753357360       -1.2095708795
 O          1.5163295074        2.1567704526       -2.0479427644
 O          1.0372063936       -0.1775267500        2.0149179671
 C          0.1572856612        2.0796264221        0.5193963886
 C         -1.0634334402        1.9759394013       -0.3632727351
 C         -1.8515608628        3.0670088851       -0.7085065351
 C         -2.9759694349        2.8948347964       -1.4974843562
 C         -3.3539253540        1.6387636637       -1.9364068998
 C         -2.5748083521        0.5401655945       -1.5916723496
 C         -1.4407898597        0.7198381078       -0.8170111955
 H         -0.8287023085       -0.1372017172       -0.5834512291
 N         -2.9133936170       -0.7549450182       -2.0102480081
 S         -2.6096537121       -2.0567380471       -1.0058414559
 O         -1.2033245261       -2.3750159773       -0.9994046891
 O         -3.4863717309       -3.0961525730       -1.5035181454
 C         -3.1624335814       -1.5284953723        0.6061567284
 C         -4.5244672357       -1.3706850625        0.7820136086
 C         -4.9983697696       -0.9171357484        2.0012439638
 C         -4.1052776749       -0.6239448778        3.0212620014
 C         -2.7433040674       -0.7929865136        2.8314107670
 C         -2.2625025118       -1.2499416853        1.6136713115
 H         -1.2044060365       -1.3804874355        1.4477702975
 H         -2.0396276208       -0.5669458748        3.6168132483
 H         -4.4716692741       -0.2644251050        3.9698588853
 H         -6.0582195385       -0.7905950668        2.1522174845
 H         -5.1865460896       -1.6206641584       -0.0310120368
 H         -3.8024395660       -0.8365597679       -2.4805999244
 H         -4.2335089537        1.5076321027       -2.5475237906
 H         -3.5730050943        3.7522500442       -1.7682667663
 H         -1.5805911452        4.0526980731       -0.3675580593
 H         -0.1320211241        1.7351505956        1.5245712436
 C          0.7059570557        3.4872797619        0.6266264001
 C          0.1805536183        4.4293597789        1.6673338143
 C          1.5520853503        3.8440096899        1.8111026287
 H          2.4085816906        4.4835339240        1.6592609071
 H          1.7071173482        3.0782788590        2.5573218843
 H          0.0968120795        5.4765719496        1.4185937301
 H         -0.5942141645        4.0667870467        2.3257258656
 H          0.9962573790        3.8933208899       -0.3356694871
