  62
        -98.93237034
 C         -2.5033904502       -1.1300929787        0.6294375220
 C         -3.3791468501       -0.9555444109       -0.4692317985
 C         -4.5220218901       -0.0453449706       -0.2527900405
 C         -4.6602724504        0.5844383117        0.9253075082
 C         -5.7584222105        1.5135520726        1.3807229461
 C         -6.2859658804        2.5437991206        0.3746224640
 C         -5.2281961603        3.1111554687       -0.5829444669
 H         -5.2762683603        4.2015036188       -0.5595535891
 H         -4.2294283003        2.8228181894       -0.2497799162
 C         -5.4320094800        2.6620385458       -2.0316970861
 H         -6.4957809099        2.7233686753       -2.2715455364
 H         -4.9073292799        3.3572980946       -2.6914280974
 C         -4.9250841399        1.2581295852       -2.3578454632
 H         -3.8322895199        1.2440255853       -2.3272006730
 H         -5.2196948697        1.0240388332       -3.3835905228
 C         -5.4330180800        0.1398420070       -1.4328151611
 H         -6.4599243400        0.3189697476       -1.1242494016
 H         -5.3956437798       -0.7994505641       -1.9911408192
 H         -7.0952999903        2.1055364494       -0.2074571553
 H         -6.7232888005        3.3561801817        0.9577739423
 H         -6.5927476605        0.9015160132        1.7365028072
 H         -5.3472358107        2.0308902743        2.2512372152
 O         -3.7692885906        0.4151245238        1.9452377887
 C         -2.6859202205       -0.4337651464        1.8256322305
 O         -1.9658674807       -0.4925051143        2.8445254108
 H          1.0642709396       -1.6647184461        1.8319254336
 C          1.0501773597       -1.2155149581        0.8479002527
 C         -0.0933090701       -1.3180217197        0.0708574027
 C         -0.1112506899       -0.7012892822       -1.1769411385
 C          1.0006545001       -0.0187319730       -1.6340339896
 C          2.1466136100        0.0683690286       -0.8615127796
 C          2.1661071198       -0.5215160089        0.3946105916
 N          3.3204932596       -0.4461791073        1.1870694916
 S          4.2034120495        0.9772102229        1.2547006289
 O          4.9246588093        0.9061778354        2.5063470992
 O          3.3663451095        2.1377384125        1.0584758065
 C          5.3597695698        0.8145010903       -0.0903870105
 C          6.1332973499       -0.3283793198       -0.1476608781
 C          7.0416589500       -0.4707319218       -1.1841764077
 C          7.1633381101        0.5278814463       -2.1389958797
 C          6.3835429301        1.6717124964       -2.0647081621
 C          5.4719017499        1.8196393984       -1.0307308825
 H          4.8418152798        2.6900068586       -0.9361261543
 H          6.4804628802        2.4476564650       -2.8070373836
 H          7.8703675803        0.4143085048       -2.9455496293
 H          7.6502920901       -1.3585763019       -1.2448001758
 H          6.0113927798       -1.0791005083        0.6150885233
 H          3.2216996395       -0.8611739855        2.1019524424
 H          3.0116566600        0.6049588379       -1.2146382105
 H          0.9772840402        0.4519165251       -2.6053255106
 H         -1.0056610098       -0.7647298534       -1.7781890885
 C         -1.2976614602       -2.0554681087        0.5963131340
 H         -1.0997891804       -2.2977352666        1.6527523645
 C         -1.5689991300       -3.3701941102       -0.1230810734
 C         -0.8882763397       -3.7866718526       -1.3888924125
 C         -0.5312153299       -4.4538131200       -0.0971934811
 H         -0.8477001499       -5.4720367297        0.0709704208
 H          0.4251151700       -4.2095705391        0.3412165986
 H         -0.1684847197       -3.1159834735       -1.8300525937
 H         -1.4756888096       -4.3314386741       -2.1119990515
 H         -2.6008151700       -3.6857598000       -0.0096467130
 O         -3.2445587198       -1.5300860331       -1.5783282774
