  62
        -98.94340703
 C          2.5000666286        1.1325891320       -0.0010968388
 C          3.4624140024        0.6014344801        0.8998172506
 C          4.4223782281       -0.3599433424        0.3450849549
 C          4.3589036411       -0.6668835562       -0.9629852028
 C          5.2387614517       -1.6659315783       -1.6553668328
 C          4.6095139977       -3.0660938305       -1.6391587082
 C          4.1201992057       -3.5075880659       -0.2597119011
 H          3.2882286495       -2.8684202622        0.0452002066
 H          3.7251577427       -4.5204344250       -0.3639823356
 C          5.1989873412       -3.4894868293        0.8322959788
 H          5.1270313652       -4.4130590799        1.4104449366
 H          6.1889198330       -3.4702925511        0.3750572756
 C          5.0770418042       -2.3321961516        1.8254501164
 H          5.7424613190       -2.5364414584        2.6684262856
 H          4.0571987809       -2.2904853703        2.2161931045
 C          5.4415214962       -0.9449916113        1.2817053664
 H          6.4239764718       -0.9821604697        0.8066590690
 H          5.4959192409       -0.2584950889        2.1315804777
 H          5.3467265602       -3.7796393937       -2.0116754950
 H          3.7569794829       -3.0703901727       -2.3223462650
 H          5.3712902417       -1.3483287498       -2.6910136992
 H          6.2100617173       -1.6868662015       -1.1649619146
 O          3.4411019586       -0.1250565950       -1.8004962791
 C          2.4846725667        0.7729493046       -1.3485514210
 O          1.7090461134        1.1560208581       -2.2489697820
 O          3.5176617501        0.9260209587        2.1157211385
 C          1.5071552263        2.1250148989        0.5810183807
 C          0.1664716766        1.4856637413        0.8567533843
 C         -0.3329292000        1.4111413746        2.1518378540
 C         -1.5713008725        0.8443978962        2.3979904254
 C         -2.3332893619        0.3360875488        1.3614052986
 C         -1.8420219335        0.4024583389        0.0639890537
 C         -0.6041689980        0.9801785823       -0.1806758011
 H         -0.2255877759        1.0259415855       -1.1912424168
 N         -2.5925500241       -0.1368141767       -0.9952293835
 S         -4.2033019082        0.3102136577       -1.1401221997
 O         -4.5317786535        0.1069281075       -2.5341710054
 O         -4.4366919322        1.6345949785       -0.6119277822
 C         -5.0712622639       -0.8975685634       -0.1605059257
 C         -5.9561896869       -0.4850318397        0.8163589467
 C         -6.6321673584       -1.4430651057        1.5560772246
 C         -6.4131185189       -2.7890716419        1.3063508089
 C         -5.5223976397       -3.1868906481        0.3202303027
 C         -4.8445701666       -2.2343825720       -0.4236897484
 H         -4.1463207357       -2.5012976549       -1.1995526204
 H         -5.3540305230       -4.2345467921        0.1292181722
 H         -6.9393807265       -3.5329195324        1.8834547168
 H         -7.3251415439       -1.1358833279        2.3227878122
 H         -6.0895756291        0.5725437030        0.9792486868
 H         -2.1224251305       -0.0774076489       -1.8873127321
 H         -3.2977047880       -0.1079432652        1.5468572552
 H         -1.9467038149        0.7948875633        3.4086569070
 H          0.2618199025        1.7933128221        2.9686739933
 H          1.9380981334        2.4217103419        1.5467725741
 C          1.3374375783        3.3710128103       -0.2671385547
 C          0.8253858040        4.6232224147        0.3762920516
 C          2.2575580659        4.5340411915       -0.0565643631
 H          2.5751652666        5.1013387705       -0.9185461863
 H          3.0159578153        4.4389039052        0.7068592419
 H          0.1540327460        5.2532944076       -0.1868482496
 H          0.6128440936        4.5906668818        1.4341167046
 H          1.0252793749        3.1634107498       -1.2825567886
