  62
        -98.93546924
 C         -1.9922439262       -1.4675766588        0.3244724319
 C         -1.6097371433       -0.3941230334       -0.5148739616
 C         -2.4834830325        0.7982010111       -0.4924569369
 C         -3.5867005547        0.8048164221        0.2782316174
 C         -4.7021107179        1.8198995066        0.4234675658
 C         -4.5428572485        3.2394380176       -0.1134864515
 C         -3.5115917284        4.0854323688        0.6322963351
 H         -3.3892968823        5.0303582361        0.0988744140
 H         -3.9030216795        4.3137535933        1.6269573426
 C         -2.1433270614        3.4338274023        0.8139475761
 H         -1.5137765017        4.1277576735        1.3781996177
 H         -2.2465511143        2.5311267594        1.4201593156
 C         -1.4069216152        3.0870890376       -0.4785456402
 H         -1.3233624694        3.9816424547       -1.0986609082
 H         -0.3980168000        2.7705873659       -0.2030727422
 C         -2.0243471975        1.9606494605       -1.3247763026
 H         -1.2446824148        1.5720193411       -1.9868387808
 H         -2.8320293008        2.3324038682       -1.9506569961
 H         -4.3235665675        3.2172597437       -1.1767847341
 H         -5.5150206863        3.7267754371       -0.0008559243
 H         -4.9290643657        1.8647654762        1.4935055350
 H         -5.5760888884        1.3647149097       -0.0559956250
 O         -3.9050083207       -0.2520533687        1.0835951539
 C         -3.1139403988       -1.3841389622        1.1513701117
 O         -3.5059655738       -2.2330905023        1.9769890668
 O         -0.5953884119       -0.4111261508       -1.2580659045
 C         -1.2049446295       -2.7624759939        0.4005450407
 C          0.2867456946       -2.5208283903        0.4183314324
 C          1.1893803348       -3.3429264712       -0.2452355207
 C          2.5511232482       -3.1112023156       -0.1575522838
 C          3.0432683519       -2.0423269606        0.5661151106
 C          2.1491000727       -1.1919619635        1.2047426039
 C          0.7889059425       -1.4545482115        1.1543248697
 H          0.1003969537       -0.8024998020        1.6781817090
 N          2.6326249934       -0.0736675095        1.9082094015
 S          3.7764640967        0.9128793295        1.1836367510
 O          5.0428578419        0.2234909927        1.1589029543
 O          3.7381644154        2.1406811804        1.9464773764
 C          3.2134746163        1.2103344872       -0.4814380270
 C          2.3535914388        2.2679981602       -0.6976289464
 C          1.8763562042        2.4957891393       -1.9775695169
 C          2.2528391708        1.6549554989       -3.0126120044
 C          3.1210063727        0.6004005871       -2.7811005114
 C          3.6127547701        0.3759013906       -1.5056714417
 H          4.3030125628       -0.4234358020       -1.2957897976
 H          3.4152640104       -0.0500962941       -3.5889007022
 H          1.8687985451        1.8256573724       -4.0059982381
 H          1.2086786983        3.3218987817       -2.1628087037
 H          2.0905251494        2.9015639107        0.1351617697
 H          1.9033239640        0.4881235841        2.3221603940
 H          4.1004032168       -1.8485528571        0.6469420106
 H          3.2383758520       -3.7706526699       -0.6653879189
 H          0.8317745248       -4.1678031208       -0.8381556115
 H         -1.4759841273       -3.1996957509        1.3769238845
 C         -1.6217475272       -3.7776748520       -0.6591084907
 C         -2.8908818034       -3.6277256495       -1.4426564090
 C         -1.5676979694       -3.4400106662       -2.1181387641
 H         -1.2341784126       -4.1963955794       -2.8131475979
 H         -1.2636767871       -2.4378517644       -2.3768148384
 H         -3.4606177088       -4.5195465194       -1.6582457260
 H         -3.5030665882       -2.7567267607       -1.2585949256
 H         -1.3622082685       -4.7940004302       -0.3806491466
