  62
        -98.93291074
 C         -2.2717307831       -0.6700272541        0.6151457403
 C         -3.3647901029       -0.9242885286       -0.2449269725
 C         -4.6031953193       -0.1526662855       -0.0020881028
 C         -4.6292144341        0.7457567217        0.9987025496
 C         -5.7486347379        1.6668146330        1.4067187101
 C         -5.9142422145        2.8607785010        0.4537749923
 C         -5.8657096244        2.5075890508       -1.0301110412
 H         -5.8998505810        3.4430047709       -1.5948832368
 H         -4.9099191231        2.0299422911       -1.2528942463
 C         -7.0059737860        1.6205376547       -1.5242826786
 H         -7.9588914676        2.1111978810       -1.3142620249
 H         -6.9060288563        1.5405961974       -2.6096903771
 C         -7.0491360793        0.2031803254       -0.9482462423
 H         -7.7287495914       -0.3816941834       -1.5748980531
 H         -7.4713483251        0.1960472424        0.0529985040
 C         -5.7102413534       -0.5271745078       -0.9587474582
 H         -5.8934807992       -1.5947797371       -0.7881638703
 H         -5.2769433617       -0.4681240495       -1.9635239914
 H         -5.1060231293        3.5682989868        0.6549202796
 H         -6.8600231764        3.3548972820        0.6827987803
 H         -5.4929325720        2.0464696703        2.3985163916
 H         -6.6774461845        1.1111869406        1.4948120891
 O         -3.5461383869        0.9667840630        1.7990042697
 C         -2.3644743048        0.2763003541        1.6398995057
 O         -1.4789733452        0.5814052147        2.4659986578
 O         -3.3440804425       -1.7559047242       -1.1915428635
 C         -0.9374432091       -1.3909695678        0.5169140261
 C         -0.0542813753       -0.8155627090       -0.5648333912
 C         -0.4179436145       -0.8595587606       -1.9069128573
 C          0.4320358957       -0.3613449890       -2.8770376463
 C          1.6642181051        0.1669475452       -2.5342410456
 C          2.0332128545        0.2219542606       -1.1954104116
 C          1.1689513443       -0.2588196384       -0.2217152169
 H          1.4643981819       -0.1987158572        0.8160512224
 N          3.2682215663        0.7680260707       -0.8110964578
 S          4.0643981578        0.0842194407        0.5116239364
 O          3.9582476804       -1.3565213248        0.4617707897
 O          3.5941515071        0.7180187915        1.7180195220
 C          5.7417586447        0.5908285706        0.1803400100
 C          6.5973358652       -0.2831078585       -0.4636209777
 C          7.8909142105        0.1290914672       -0.7428481307
 C          8.3036753778        1.4018034679       -0.3781007717
 C          7.4336034876        2.2675690768        0.2680772425
 C          6.1392265499        1.8615605886        0.5514151343
 H          5.4308839478        2.4947836638        1.0600725107
 H          7.7588597806        3.2551854751        0.5527778900
 H          9.3108924499        1.7201681551       -0.5957817490
 H          8.5705862439       -0.5426942898       -1.2418830800
 H          6.2349121041       -1.2657072216       -0.7197733477
 H          3.8923265220        0.9223628808       -1.5911539842
 H          2.3329053489        0.5401578707       -3.2951375009
 H          0.1380651263       -0.3987147384       -3.9152213542
 H         -1.3726150987       -1.2837679300       -2.1768754195
 H         -0.4345489107       -1.2088515338        1.4773090756
 C         -1.0739904146       -2.8910116541        0.3295940723
 C          0.1154237631       -3.7582093101        0.6078454725
 C         -1.0661308180       -3.7858512330        1.5298782474
 H         -1.7025921805       -4.6580360261        1.5266223850
 H         -0.9666370737       -3.3206538320        2.5003111256
 H          0.2896070688       -4.6121506088       -0.0287914280
 H          1.0203582178       -3.2737739852        0.9467312116
 H         -1.7178697494       -3.1644450779       -0.4956130809
