  62
        -98.94528288
 C          2.2550768271        0.6491979448       -0.1727956232
 C          1.3713809070        0.9705434590        0.8807347855
 C          0.5966913197        2.2169693883        0.7393164939
 C          0.7333724543        2.9370433432       -0.3891821751
 C         -0.0192224637        4.1867425581       -0.7533647688
 C         -1.4517128680        3.8917014210       -1.2446148186
 C         -2.1555529091        2.7198284041       -0.5590199537
 H         -3.0574785874        2.4917717869       -1.1352320593
 H         -1.5202751463        1.8340452617       -0.6252341325
 C         -2.5763275684        2.9595859674        0.8898967102
 H         -2.9773888352        2.0192475330        1.2766160091
 H         -3.3824629696        3.6975857466        0.9019394039
 C         -1.4791330633        3.4529012978        1.8304185891
 H         -1.1889354977        4.4653897609        1.5622491483
 H         -1.9104455747        3.5059588261        2.8344049552
 C         -0.2519301279        2.5506295666        1.9415073112
 H          0.4255021340        2.9880745126        2.6859719900
 H         -0.5608316010        1.5836017566        2.3494652148
 H         -2.0525542893        4.7961708635       -1.1352616642
 H         -1.3947973960        3.6492075607       -2.3084112958
 H          0.5328682945        4.6697725143       -1.5623140934
 H         -0.0242867004        4.8643448263        0.0965017692
 O          1.5730425510        2.5733271059       -1.3983357731
 C          2.3494743212        1.4334137223       -1.3205904154
 O          3.0760481484        1.2284634557       -2.3159608544
 O          1.2228481987        0.2406967521        1.8978638775
 C          3.0647967792       -0.6344510311       -0.1070770177
 C          2.1205054452       -1.8036037663        0.0436104633
 C          2.3001303672       -2.8357425840        0.9553089206
 C          1.3601475863       -3.8473229274        1.0575798183
 C          0.2199295064       -3.8415654596        0.2747277165
 C          0.0382546718       -2.8200884073       -0.6516821253
 C          1.0022871277       -1.8332801557       -0.7800361015
 H          0.8583373333       -1.0473869184       -1.5067376925
 N         -1.1040049836       -2.7758197618       -1.4727800531
 S         -2.0262537912       -1.3859953145       -1.5926429721
 O         -3.0884116095       -1.7324815680       -2.5122623848
 O         -1.1976265710       -0.2692661836       -1.9663931021
 C         -2.7308962323       -1.1294128477        0.0277072657
 C         -1.9020190315       -0.8324804447        1.0911094842
 C         -2.4629046122       -0.6706523702        2.3489953703
 C         -3.8323929827       -0.7971457953        2.5221503417
 C         -4.6515360206       -1.0909076220        1.4425105921
 C         -4.0969350246       -1.2651922558        0.1849703979
 H         -4.6921648501       -1.4993844712       -0.6826161767
 H         -5.7169326902       -1.1867640347        1.5764607286
 H         -4.2608213077       -0.6640515694        3.5029773274
 H         -1.8161333964       -0.4459685612        3.1826261554
 H         -0.8393579440       -0.7246025492        0.9398511756
 H         -1.7099814296       -3.5791122584       -1.3816014981
 H         -0.5237060626       -4.6174386988        0.3759406092
 H          1.5088615348       -4.6424270643        1.7721964982
 H          3.1694826099       -2.8434124163        1.5920559101
 H          3.5740613403       -0.7240421972       -1.0780829058
 C          4.1059002480       -0.5508268445        0.9893651092
 C          5.3915977541       -1.3109955140        0.8699882264
 C          5.3850703201        0.1795645430        0.7165534244
 H          5.8127228506        0.7832927279        1.5028082776
 H          5.5151048546        0.5958309317       -0.2722193897
 H          5.8289349861       -1.7293584118        1.7639455252
 H          5.5387804986       -1.9094207821       -0.0164368078
 H          3.6649156553       -0.4371814262        1.9728692051
