  62
        -98.94940830
 C         -1.3542474307       -1.5972832904        0.2710532107
 C         -1.6185618004       -0.6117380501        1.2521741805
 C         -2.7910430101        0.2385990503        1.0173487403
 C         -3.5364225901        0.0381196604       -0.0843748397
 C         -4.7440752298        0.8449917507       -0.4622137099
 C         -4.3742539693        2.0177982004       -1.3797783101
 C         -3.2089318090        2.8665734801       -0.8699757103
 H         -2.2840172293        2.2851116997       -0.9053241901
 H         -3.0814230987        3.6963018399       -1.5695319904
 C         -3.3954470089        3.4224826605        0.5485305396
 H         -3.0774511585        4.4672399903        0.5546431794
 H         -4.4513424989        3.4008937609        0.8228582696
 C         -2.5713692292        2.7025735404        1.6179841098
 H         -2.5600040990        3.3251153606        2.5171321396
 H         -1.5395059292        2.6103439299        1.2669271598
 C         -3.0796843297        1.3131302806        2.0266080601
 H         -2.5524251298        1.0190174906        2.9390369601
 H         -4.1480508497        1.3622661211        2.2482797000
 H         -4.1021150195        1.6196124501       -2.3601002400
 H         -5.2568110791        2.6490377107       -1.5023345303
 H         -5.4406904800        0.1907669509       -0.9898318698
 H         -5.2229133797        1.2153615511        0.4422163600
 O         -3.2519098104       -0.9155786699       -1.0074609395
 C         -2.1312689507       -1.7248319503       -0.8797589493
 O         -1.9517830110       -2.5038078106       -1.8353754891
 O         -0.9011683904       -0.4500035801        2.2772656405
 C         -0.1118844811       -2.4558370308        0.4198248009
 C          0.9169867691       -2.0598121414       -0.6131058491
 C          1.7577751988       -2.9629601818       -1.2514005989
 C          2.6938867090       -2.5156148524       -2.1685642190
 C          2.8307065995       -1.1684694825       -2.4521245593
 C          1.9974851398       -0.2565990920       -1.8139451395
 C          1.0524563996       -0.7111351015       -0.9099535994
 H          0.3944126399        0.0041032689       -0.4434921996
 N          2.0862774703        1.1206178679       -2.0632822298
 S          1.8047397007        2.2074719283       -0.8217905300
 O          0.3994145807        2.2718333788       -0.5124864700
 O          2.4024379112        3.4393305679       -1.2926295902
 C          2.7479451804        1.5760458882        0.5544284102
 C          4.1241134405        1.6692345077        0.4603608602
 C          4.9066879903        1.1518385776        1.4783134303
 C          4.3025082900        0.5462362880        2.5702595304
 C          2.9219422800        0.4654671786        2.6524640704
 C          2.1318341702        0.9837914086        1.6371094003
 H          1.0556726602        0.9212301491        1.6866264502
 H          2.4425717598       -0.0026111711        3.4975614405
 H          4.9096359698        0.1376412880        3.3626288305
 H          5.9809547203        1.2187754772        1.4174838303
 H          4.5538837307        2.1598317273       -0.3979195099
 H          2.8594683605        1.4040485275       -2.6463123798
 H          3.5638549297       -0.8248831029       -3.1654618093
 H          3.3339174787       -3.2283332627       -2.6660210088
 H          1.6747563484       -4.0159739817       -1.0378069287
 H          0.3001442990       -2.1974482607        1.4080144809
 C         -0.4485322216       -3.9314056307        0.4058500312
 C          0.3747955880       -4.9008296508        1.1990520514
 C         -1.0126612219       -4.5553195802        1.6462832413
 H         -1.7915883621       -5.2955179799        1.5420071215
 H         -1.1292313417       -3.9197622600        2.5121089212
 H          0.5484810677       -5.8846353909        0.7898273116
 H          1.2018419282       -4.5061354010        1.7696624514
 H         -0.8528602017       -4.2576512707       -0.5452446287
