  62
        -98.94388420
 C         -1.8549645315        1.1262767221        0.4751164174
 C         -1.9182183807       -0.0250555865       -0.3472196933
 C         -3.2320209899       -0.3097527563       -0.9391170167
 C         -4.2666495901        0.5183657373       -0.7075538817
 C         -5.6581603495        0.3736548169       -1.2615123158
 C         -6.5558876773       -0.5742557119       -0.4544411793
 C         -6.2245662413       -2.0606951787       -0.5937051030
 H         -7.0568604855       -2.6160523306       -0.1565343732
 H         -6.1784131965       -2.3237607656       -1.6510224510
 C         -4.9254630290       -2.4879667969        0.1034940071
 H         -4.6292375649       -1.7205588010        0.8223228673
 H         -5.1016826506       -3.4055132108        0.6693701695
 C         -3.7559580524       -2.7571423597       -0.8435366338
 H         -3.9900489063       -3.6126430326       -1.4810053578
 H         -2.8814428656       -3.0148118915       -0.2411857377
 C         -3.3824692538       -1.5685250179       -1.7390049860
 H         -2.4191035764       -1.7804483664       -2.2095362433
 H         -4.1304187242       -1.4371478265       -2.5206939179
 H         -7.5822567588       -0.4191755282       -0.7951242091
 H         -6.5090942111       -0.2873146705        0.5986851698
 H         -5.6079359080        0.0357131690       -2.2970725880
 H         -6.1053293778        1.3700367460       -1.2428308935
 O         -4.1560484770        1.6310132945        0.0670032856
 C         -2.9600371661        1.9490864537        0.6909359755
 O         -3.0046464599        2.9794192292        1.3946290358
 O         -0.9361956514       -0.7738324211       -0.5795948531
 C         -0.5595088103        1.4933714308        1.1720031549
 C          0.5626358942        1.7182957158        0.1866377209
 C          0.2993618533        2.2384394666       -1.0765343857
 C          1.3174574935        2.4364443729       -1.9908274896
 C          2.6276658478        2.1362900194       -1.6616280815
 C          2.9059028761        1.6421638379       -0.3958486068
 C          1.8806351174        1.4362118278        0.5188003925
 H          2.1170392334        1.0455877602        1.4969432602
 N          4.2457157369        1.3331778699       -0.0635528566
 S          4.8556054706       -0.0656128780       -0.7608927579
 O          6.2152624267       -0.1848578777       -0.2855738992
 O          4.6764302735        0.0134235482       -2.1870417207
 C          3.8532543796       -1.3646731146       -0.0632067505
 C          2.5618370329       -1.5251886873       -0.5238346214
 C          1.7384936233       -2.4511617720        0.0972385984
 C          2.2223686566       -3.2020233385        1.1574393792
 C          3.5263303322       -3.0373570627        1.6017084394
 C          4.3484320906       -2.1019958798        0.9950022522
 H          5.3641221549       -1.9320435089        1.3144922167
 H          3.8988286362       -3.6269677998        2.4241102502
 H          1.5767858442       -3.9185706320        1.6412167334
 H          0.7184609514       -2.5463431613       -0.2393654639
 H          2.2054292988       -0.9305845158       -1.3491921234
 H          4.4071434904        1.2918129944        0.9339809626
 H          3.4312597956        2.2626460119       -2.3683567384
 H          1.0883518975        2.8284139502       -2.9704746752
 H         -0.7214881458        2.4769392103       -1.3424756323
 H         -0.7531124116        2.4455618091        1.6886503891
 C         -0.2185486185        0.4355896533        2.2055554657
 C          0.4156947797        0.8132954755        3.5097478794
 C         -1.0178435361        0.3785561775        3.4712303840
 H         -1.2779516927       -0.5879263396        3.8756545095
 H         -1.7840569988        1.1287743773        3.6057667581
 H          1.1404087113        0.1412350737        3.9449157834
 H          0.6182452634        1.8591740910        3.6867538989
 H          0.0684526250       -0.5064087862        1.7520019813
