  62
        -98.94568337
 C          2.3703052496        0.8360692492        0.3062079117
 C          2.1785452304       -0.0204337203       -0.8050321388
 C          2.5221808503       -1.4335433104       -0.5889519091
 C          2.9575235294       -1.8301462309        0.6206743110
 C          3.2774812991       -3.2480868811        0.9937211807
 C          2.0449191087       -3.9652466013        1.5625584794
 C          0.7878014693       -3.8161171009        0.7047438986
 H         -0.0018037910       -4.3934125612        1.1901059977
 H          0.4704691993       -2.7704950609        0.7094820088
 C          0.9507259704       -4.2869642803       -0.7469156715
 H          0.0800605406       -4.8852994002       -1.0210942524
 H          1.8257330205       -4.9325737903       -0.8301055611
 C          1.0563600712       -3.1550141299       -1.7701361409
 H          0.2346871211       -2.4496486399       -1.6236295512
 H          0.9473512919       -3.5870845295       -2.7681064612
 C          2.3712637812       -2.3663322099       -1.7574435796
 H          3.2172882012       -3.0545445698       -1.8116155493
 H          2.3853597918       -1.7321195995       -2.6485036893
 H          1.8341302980       -3.5570614617        2.5539439295
 H          2.2856034286       -5.0237921914        1.6767622592
 H          4.0618660386       -3.2361205214        1.7524407513
 H          3.6443228598       -3.7751676107        0.1151758407
 O          3.1060850786       -0.9811319813        1.6707149915
 C          2.8143929987        0.3669472487        1.5418468619
 O          2.9797966479        1.0318475983        2.5859791823
 O          1.7455798213        0.3701410102       -1.9192713289
 C          2.0555413497        2.3170633093        0.1843429421
 C          0.5890310199        2.4966255894       -0.1269679589
 C          0.1116224407        3.2173406199       -1.2124805389
 C         -1.2512866691        3.3301558500       -1.4305186199
 C         -2.1624362097        2.7425864596       -0.5727578108
 C         -1.6955860905        2.0193646291        0.5190017192
 C         -0.3296984407        1.9008350090        0.7294909102
 H          0.0371033987        1.3414301387        1.5819551202
 N         -2.5973183412        1.4452824087        1.4308245383
 S         -3.9515331209        0.6014177489        0.9398391170
 O         -4.8271222303        1.4857096292        0.2133972667
 O         -4.4833847617        0.0251924784        2.1532352163
 C         -3.3743991100       -0.6981958506       -0.1355053432
 C         -3.1094190104       -1.9370952108        0.4143493665
 C         -2.6634713598       -2.9563299205       -0.4105692936
 C         -2.4791144788       -2.7169921299       -1.7637952234
 C         -2.7373557284       -1.4642612097       -2.2985545530
 C         -3.1920110690       -0.4426349000       -1.4799431729
 H         -3.4159210888        0.5381202701       -1.8652604227
 H         -2.5857133677       -1.2789838492       -3.3497054328
 H         -2.1346070083       -3.5117796596       -2.4062624935
 H         -2.4614384301       -3.9311283107        0.0027993761
 H         -3.2759852812       -2.0829945513        1.4696405263
 H         -2.1503093218        0.9730338684        2.2024249784
 H         -3.2251060696        2.8383702796       -0.7258643015
 H         -1.6102297685        3.8913976803       -2.2799357299
 H          0.8038934512        3.6868547102       -1.8911799982
 H          2.2432802690        2.7497331189        1.1779135525
 C          2.9816740704        2.9764135397       -0.8150745969
 C          3.2833925503        4.4397784697       -0.7046865260
 C          4.3340478101        3.4294385295       -0.3568966157
 H          5.1735446306        3.3050350698       -1.0243149051
 H          4.5807661893        3.2825701991        0.6848846644
 H          3.4053556310        5.0123147001       -1.6116594257
 H          2.8196265997        4.9864438893        0.1025652139
 H          2.9109503812        2.5395989601       -1.8041079671
