  62
        -98.94036252
 C          1.5674808751        1.4466748183       -0.0488344981
 C          2.6853270311        1.0315106492        0.7067272393
 C          3.3626418104       -0.1978516928        0.2542867436
 C          2.8732454240       -0.8555668073       -0.8116734288
 C          3.3566176509       -2.1592491673       -1.3859693611
 C          2.5973552641       -3.3437450652       -0.7627507935
 C          3.2152440283       -3.9069543418        0.5159643985
 H          4.1503887845       -4.4151279221        0.2718485853
 H          2.5260421893       -4.6597028347        0.9063058592
 C          3.4897748152       -2.8762665863        1.6137360778
 H          3.5666479393       -3.4093296990        2.5635264755
 H          2.6427575199       -2.1920895607        1.6962838113
 C          4.7818648599       -2.0787325137        1.3837829726
 H          5.3639952450       -2.5591802219        0.5978235119
 H          5.3945965110       -2.1137583850        2.2871723295
 C          4.5790912861       -0.5954342294        1.0461672201
 H          5.4678438693       -0.2252623894        0.5235856220
 H          4.5040442418       -0.0203283171        1.9748751705
 H          2.5449833585       -4.1523550322       -1.4946638902
 H          1.5748933072       -3.0171057569       -0.5570081069
 H          3.1373411883       -2.1268024191       -2.4549962849
 H          4.4289634230       -2.2669403218       -1.2536425746
 O          1.7839159732       -0.4243435319       -1.5061595924
 C          1.1116539031        0.7353858762       -1.1599529191
 O          0.1495831223        1.0168072926       -1.8947023442
 H         -0.1955964278        0.5311279847        1.5562415696
 C         -0.9873578987        1.1768647457        1.1955871684
 C         -0.6538793280        2.3643371498        0.5557271510
 C         -1.6833077065        3.1826528066        0.1099717086
 C         -3.0049856218        2.8075068772        0.2828717119
 C         -3.3303427644        1.6128125391        0.8976213138
 C         -2.3080820401        0.7914708042        1.3554594898
 N         -2.6231161308       -0.4406966759        1.9666381833
 S         -3.5109201324       -1.5206653378        1.0389000817
 O         -4.8768914848       -1.0657914700        0.9755675418
 O         -3.2983828676       -2.8109626311        1.6563579429
 C         -2.7753642668       -1.4781483672       -0.5833927672
 C         -3.3086521984       -0.6521142070       -1.5512822832
 C         -2.6934638714       -0.5909962844       -2.7905424539
 C         -1.5645747329       -1.3536619570       -3.0401266611
 C         -1.0447684281       -2.1835642061       -2.0598596432
 C         -1.6485609721       -2.2413416080       -0.8151643515
 H         -1.2748368896       -2.8750485433       -0.0252844898
 H         -0.1635198492       -2.7719509864       -2.2605585746
 H         -1.0804047847       -1.2965997313       -4.0018621411
 H         -3.0894443907        0.0585436342       -3.5541733149
 H         -4.1915054396       -0.0788715999       -1.3208714276
 H         -1.8118664971       -0.9126836947        2.3407172322
 H         -4.3531294661        1.2956279421        1.0222157636
 H         -3.7934581101        3.4524001229       -0.0740482155
 H         -1.4515985858        4.1121133535       -0.3835199789
 C          0.8069930522        2.6920254415        0.3669465545
 H          1.2279088080        2.9877749449        1.3396757635
 C          1.0478820443        3.8098441533       -0.6266975247
 C          1.0406269348        5.2401313048       -0.1785818315
 C          2.3320671144        4.5780718646       -0.5512368660
 H          2.8159730110        4.8670691022       -1.4721219639
 H          3.0204300050        4.3136749655        0.2382909262
 H          0.8566866295        5.4370048483        0.8668045832
 H          0.6395357031        5.9880370953       -0.8459262680
 H          0.6601078661        3.5775050541       -1.6123038735
 O          3.0938625585        1.6512647159        1.7276311252
