  62
        -98.94121481
 C          0.9410842438        1.5844064176       -0.7928360924
 C          2.2489588463        1.6099337386       -0.2482778613
 C          3.1080935721        0.4422780157       -0.5043619289
 C          2.6114248592       -0.5804751073       -1.2210557482
 C          3.2515938359       -1.9140708700       -1.4909578724
 C          2.8438608441       -2.9246338039       -0.4032097553
 C          3.7741471460       -2.9694443374        0.8071513004
 H          3.3282218117       -3.6557880305        1.5309765255
 H          4.7402261738       -3.3831541743        0.5085953933
 C          4.0003780700       -1.6188184741        1.4907988761
 H          4.3351035352       -1.8107421089        2.5124489389
 H          3.0479998470       -1.0876819267        1.5589998938
 C          5.0458557818       -0.7470756442        0.7793871474
 H          5.7831057857       -0.4017389021        1.5073723737
 H          5.5871875215       -1.3578966307        0.0569952171
 C          4.4907134100        0.5047482219        0.0861655888
 H          4.4453118333        1.3271764865        0.8071102966
 H          5.1891242198        0.8147460714       -0.6988638908
 H          1.8337113893       -2.6754354291       -0.0635034768
 H          2.8086618870       -3.9241539688       -0.8426188436
 H          4.3317520328       -1.8229882245       -1.5577861060
 H          2.8668548129       -2.2580833024       -2.4532583430
 O          1.3680623592       -0.5491555348       -1.7663523853
 C          0.4947026435        0.5044730577       -1.5545352525
 O         -0.6120826952        0.3447663171       -2.1061525468
 O          2.6800521943        2.5754153207        0.4413775918
 C          0.0234211445        2.7300507146       -0.3977380992
 C         -0.7064198328        2.3441826100        0.8689154450
 C         -0.7189496110        3.1702158179        1.9860787868
 C         -1.3268796786        2.7552874916        3.1584479430
 C         -1.8961344557        1.4976897319        3.2516627833
 C         -1.8898459122        0.6664652800        2.1374132188
 C         -1.3373579221        1.1114921121        0.9475572851
 H         -1.3575416793        0.4637503432        0.0868275466
 N         -2.4220623705       -0.6306664012        2.1790548831
 S         -1.6387405964       -1.8465315835        1.3250342801
 O         -2.0200396391       -3.0650685836        2.0139175819
 O         -0.2165033588       -1.6085349103        1.2317831145
 C         -2.4041145084       -1.8596000525       -0.2800361135
 C         -3.7124337528       -1.4391652598       -0.4100553860
 C         -4.3145003803       -1.5067488763       -1.6556171805
 C         -3.6058720328       -1.9984096561       -2.7409762307
 C         -2.2957462845       -2.4223077448       -2.5915232224
 C         -1.6861828870       -2.3530975269       -1.3494734336
 H         -0.6608417787       -2.6531356342       -1.1992124055
 H         -1.7396061547       -2.7942041761       -3.4370324666
 H         -4.0746856970       -2.0458608751       -3.7114054271
 H         -5.3322581993       -1.1717349187       -1.7769178411
 H         -4.2309798589       -1.0554657531        0.4529439322
 H         -2.7212645103       -0.9470456179        3.0901187448
 H         -2.3314073325        1.1569052591        4.1786529941
 H         -1.3310347029        3.4060158026        4.0197207946
 H         -0.2276537404        4.1307553876        1.9408530618
 H          0.6859363224        3.5732224696       -0.1585365763
 C         -0.9493745466        3.1700808901       -1.4719535352
 C         -1.4981704651        4.5638097452       -1.4290660542
 C         -0.5126104862        4.1783498807       -2.4902300325
 H         -0.8595873958        4.0645517919       -3.5059107080
 H          0.4951043156        4.5603675585       -2.4140298994
 H         -2.5268714470        4.7190995042       -1.7150066818
 H         -1.1587339237        5.2131244163       -0.6364521344
 H         -1.6059157280        2.3778929537       -1.8062970413
