  62
        -98.94305165
 C         -1.7341099807       -0.9675119593        0.2961273359
 C         -2.9457348691       -0.8359472499        1.0260711047
 C         -3.7044710044        0.4039740808        0.8188629536
 C         -3.1959465472        1.3572245657        0.0178956223
 C         -3.8791876292        2.6501620980       -0.3183792951
 C         -4.7358567280        2.5111809507       -1.5847658021
 C         -5.6596326166        1.2930996031       -1.5761425824
 H         -6.2351398696        1.3148773510       -2.5041681502
 H         -5.0532738607        0.3845135925       -1.5970232953
 C         -6.6205618433        1.2327632251       -0.3804649281
 H         -6.6996199896        2.2175460447        0.0815131585
 H         -7.6149727151        0.9649657248       -0.7439038909
 C         -6.2437909869        0.2021144944        0.6856666754
 H         -6.0756741711       -0.7690627563        0.2127690087
 H         -7.0927293773        0.0905753843        1.3654523329
 C         -5.0157898756        0.5435533073        1.5391124900
 H         -4.9792831413       -0.1679891993        2.3692817643
 H         -5.1239325542        1.5481368176        1.9530392491
 H         -4.0699403727        2.4288695945       -2.4470111555
 H         -5.3303179913        3.4191891560       -1.7010400691
 H         -4.5004823683        2.9559059423        0.5211568878
 H         -3.1156059039        3.4106015892       -0.4896355089
 O         -2.0078937173        1.2236488876       -0.6196009574
 C         -1.2552897905        0.0572359921       -0.5227259866
 O         -0.2159075973        0.0867743364       -1.2060415801
 O         -3.3734178480       -1.7190113134        1.8159781989
 C         -0.9439164487       -2.2495170685        0.5031444721
 C          0.4831415848       -1.9132662668        0.8466385031
 C          0.8150704171       -1.5529935374        2.1491130602
 C          2.1064501539       -1.1772156685        2.4702640923
 C          3.0857746539       -1.1239758616        1.4935742882
 C          2.7556901182       -1.4591501004        0.1869861485
 C          1.4698297131       -1.8793380582       -0.1250682412
 H          1.2254212057       -2.1344317724       -1.1441514922
 N          3.7218084832       -1.3528347778       -0.8264135185
 S          4.7849465727       -0.0657817812       -0.7814629939
 O          5.1389143105        0.1816531208       -2.1627250837
 O          5.8903274518       -0.3930987024        0.0880249092
 C          3.9137781562        1.3425056139       -0.1067972444
 C          2.6151346068        1.6083363869       -0.4918467019
 C          1.9795682242        2.7227360106        0.0335153399
 C          2.6471092564        3.5546909115        0.9180012097
 C          3.9539527127        3.2774130601        1.2888040582
 C          4.5929178834        2.1611408280        0.7747638388
 H          5.6033649290        1.9007860262        1.0459961980
 H          4.4736145895        3.9237599161        1.9777034898
 H          2.1448489641        4.4200050711        1.3213322713
 H          0.9581018506        2.9199308990       -0.2524286568
 H          2.0837288348        0.9538038109       -1.1643913612
 H          3.3482696386       -1.4812534525       -1.7555570060
 H          4.0955475246       -0.8235060442        1.7234599403
 H          2.3527877854       -0.9114320336        3.4868767850
 H          0.0448412421       -1.5641970900        2.9076429895
 H         -1.4097431409       -2.7148292297        1.3863272872
 C         -1.0573015739       -3.2603128902       -0.6287133893
 C         -2.3777479610       -3.5030176227       -1.2950485725
 C         -1.2552597103       -2.8753951952       -2.0629599768
 H         -0.7614025739       -3.4668680662       -2.8206000588
 H         -1.3191362851       -1.8263428118       -2.3052993914
 H         -2.6621517080       -4.5176960066       -1.5292637298
 H         -3.2045083709       -2.8748990450       -0.9964017119
 H         -0.4409963209       -4.1354565656       -0.4449263797
