  62
        -98.94360013
 C         -0.6673307094       -1.5713233633        0.1734120436
 C         -1.3834326902       -0.6314254863        0.9455706665
 C         -2.3401485947        0.2253954606        0.2235223158
 C         -2.4536679471        0.1042957224       -1.1126811351
 C         -3.2651045001        0.8971304137       -2.1169158881
 C         -4.3933318347        1.8183968646       -1.6600639413
 C         -5.6012088801        1.0980107590       -1.0610397681
 H         -6.2907311346        1.8511127309       -0.6736644832
 H         -6.1133270987        0.5576613565       -1.8610590779
 C         -5.2859079911        0.0941072298        0.0448689074
 H         -6.2293487154       -0.3535796283        0.3685423476
 H         -4.6686665793       -0.7117079991       -0.3576355890
 C         -4.6004725495        0.6762398957        1.2790741532
 H         -4.5781552805       -0.1066601287        2.0416070811
 H         -5.1918747264        1.5067441859        1.6691382138
 C         -3.1548266681        1.1606766224        1.0711403011
 H         -2.6652594903        1.1824830731        2.0491439998
 H         -3.1320073355        2.1701695334        0.6660821820
 H         -4.7349814378        2.3548594987       -2.5495668267
 H         -4.0121394055        2.5665170060       -0.9711202999
 H         -2.5306549709        1.4912347998       -2.6741672107
 H         -3.6649414756        0.1636148290       -2.8245732356
 O         -1.7332701465       -0.8154354954       -1.8183095858
 C         -0.8236201684       -1.6608161442       -1.2089000082
 O         -0.2428531120       -2.4407983881       -1.9882705789
 O         -1.2201554445       -0.4968936078        2.1889388126
 C          0.3770098268       -2.4430747985        0.8475160092
 C          1.7228844637       -2.1489416304        0.2318765299
 C          2.6275026420       -3.1265984078       -0.1591235747
 C          3.8138310983       -2.7709706244       -0.7784928222
 C          4.1118657414       -1.4459802967       -1.0369738022
 C          3.2198016467       -0.4587343027       -0.6319615682
 C          2.0572414617       -0.8157899176        0.0278582671
 H          1.3689868353       -0.0455409488        0.3438060383
 N          3.4814406884        0.8990884099       -0.8645491019
 S          2.2183860254        1.9649243271       -1.1286914122
 O          1.1112514382        1.3547065996       -1.8278673410
 O          2.8432141947        3.0893513715       -1.7964565280
 C          1.7326012026        2.4771572965        0.5047373236
 C          2.7206537882        2.8251869214        1.4048077912
 C          2.3518318713        3.2547132828        2.6690745932
 C          1.0092788497        3.3358447702        3.0070389257
 C          0.0297970775        2.9899984264        2.0895959228
 C          0.3924143409        2.5547501855        0.8248831445
 H         -0.3386461205        2.2556436595        0.0886804507
 H         -1.0136700934        3.0477911612        2.3535874291
 H          0.7216915100        3.6687216637        3.9918211495
 H          3.1102116554        3.5235371661        3.3866409411
 H          3.7519508922        2.7512895417        1.1029975998
 H          4.2745611225        1.0901903349       -1.4590640016
 H          5.0203584340       -1.1742328514       -1.5524147876
 H          4.5063808404       -3.5399814731       -1.0856685965
 H          2.3977996486       -4.1668119425        0.0038005805
 H          0.3948373156       -2.1222444403        1.8998080762
 C         -0.0144801282       -3.9039093739        0.7857637337
 C          0.4349436790       -4.8536553302        1.8547758090
 C         -1.0007222856       -4.4312464980        1.7831164244
 H         -1.7362193642       -5.1483663365        1.4507335181
 H         -1.3701470913       -3.7397232193        2.5261311149
 H          0.6839538621       -5.8657465184        1.5734915367
 H          1.0400427370       -4.4550945845        2.6547782129
 H         -0.0865325304       -4.2704880884       -0.2322667067
