  62
        -98.94093025
 C          1.6056003292        0.0090920184        0.7732455416
 C          2.8886643529       -0.0564569672        1.3749208545
 C          3.9980633176        0.5094829861        0.6001204234
 C          3.7600855642        1.0400274705       -0.6127579281
 C          4.7803783817        1.6779102790       -1.5162338212
 C          5.5616570219        0.6783825802       -2.3800375663
 C          6.5891787821       -0.1680812220       -1.6275734335
 H          7.2099230720       -0.6611157646       -2.3784100280
 H          7.2403875563        0.4847437453       -1.0454079940
 C          5.9787513858       -1.2386937391       -0.7122138383
 H          4.9341423837       -1.4011583064       -0.9880743360
 H          6.4998138505       -2.1869922482       -0.8625014386
 C          6.0516949985       -0.9134802301        0.7798144905
 H          5.5579210867       -1.7180266101        1.3309206607
 H          7.0962869207       -0.8807366854        1.0974362549
 C          5.3801861591        0.4093201195        1.1714305209
 H          5.2940994283        0.4404131572        2.2604471728
 H          5.9895447473        1.2517002163        0.8444496847
 H          4.8494369088        0.0222852600       -2.8857118880
 H          6.0874713490        1.2519448285       -3.1468646497
 H          4.2313334970        2.3495236287       -2.1796041738
 H          5.4773813376        2.2692831162       -0.9217340149
 O          2.5194025929        1.0706507900       -1.1635051728
 C          1.4150928882        0.5375320136       -0.5052505141
 O          0.3620572243        0.6082560417       -1.1627079677
 O          3.0970834629       -0.5663022435        2.5082052590
 C          0.4415618947       -0.5902028552        1.5426057757
 C         -0.3459363543       -1.5107285988        0.6469813700
 C          0.2573078768       -2.6766617343        0.1821492297
 C         -0.4189207755       -3.5294030220       -0.6681174233
 C         -1.7112584574       -3.2394695246       -1.0697077420
 C         -2.3200537273       -2.0760952388       -0.6147876293
 C         -1.6391679979       -1.2238929373        0.2434542917
 H         -2.1211899709       -0.3220514886        0.5793893553
 N         -3.6065438338       -1.7330972985       -1.0424813408
 S         -4.6261420464       -0.7772628888       -0.1416161942
 O         -4.5582382079       -1.0990827034        1.2660198650
 O         -5.9238618697       -0.9561991454       -0.7590954709
 C         -4.0886591442        0.9007970636       -0.4052714723
 C         -4.4351374237        1.8409566833        0.5457149819
 C         -4.0676912457        3.1625305977        0.3505774280
 C         -3.3600340510        3.5193531147       -0.7869261280
 C         -3.0198198477        2.5636474358       -1.7311750854
 C         -3.3899738814        1.2412486049       -1.5453745600
 H         -3.1224160151        0.4790508273       -2.2577286358
 H         -2.4584203726        2.8392756944       -2.6092786356
 H         -3.0681209814        4.5470846138       -0.9355307247
 H         -4.3293147481        3.9068635620        1.0859182894
 H         -4.9729348154        1.5172334840        1.4228632211
 H         -4.0880659430       -2.4091431651       -1.6144081067
 H         -2.2401502806       -3.9014226671       -1.7383690271
 H          0.0612723171       -4.4294119628       -1.0220920080
 H          1.2697661189       -2.9000486138        0.4908769730
 H          0.9194787664       -1.2038705936        2.3247814149
 C         -0.4271250331        0.4284110756        2.2646417684
 C          0.1669590645        1.6875390075        2.8192710646
 C         -0.7893412739        1.7544075844        1.6682496637
 H         -1.7838305199        2.1368111533        1.8474692526
 H         -0.4074639442        1.9869407902        0.6869853645
 H         -0.1650944435        2.0298799138        3.7877505487
 H          1.2138738158        1.8706578548        2.6253694546
 H         -1.1907459530       -0.0530060075        2.8695958870
