  62
        -98.94049111
 C          2.3142884274        0.7449596553        0.1291265663
 C          3.1136786938        0.1287234039        1.1281303860
 C          4.0386894753       -0.9178949298        0.6770514700
 C          4.0683066896       -1.2469974363       -0.6267916895
 C          4.9976616637       -2.2544897993       -1.2376498317
 C          6.2973027287       -1.5931274593       -1.7174964646
 C          6.9510095492       -0.6861055306       -0.6748985812
 H          7.8739919814       -0.3002212208       -1.1131011804
 H          6.3001073406        0.1717117974       -0.4905222976
 C          7.2677623273       -1.3766184485        0.6590263571
 H          8.2752368013       -1.0920065476        0.9696539574
 H          7.2636353184       -2.4590287029        0.5260104017
 C          6.3260675826       -1.0034837926        1.8055067939
 H          6.2545943806        0.0843974603        1.8818527792
 H          6.7645312277       -1.3685545861        2.7379732051
 C          4.9052150524       -1.5742564681        1.7147027733
 H          4.9518278989       -2.6527224239        1.5506184412
 H          4.4120719887       -1.3927405208        2.6740102294
 H          6.9968198926       -2.3786994324       -2.0089088188
 H          6.0737186819       -0.9920940965       -2.6020548809
 H          5.2201140027       -3.0263096431       -0.5033342203
 H          4.4962442104       -2.7118502300       -2.0922901687
 O          3.2731628747       -0.6556123987       -1.5524581844
 C          2.3808666976        0.3539101510       -1.2084311413
 O          1.7291211455        0.7879578317       -2.1778163269
 O          3.0582048509        0.4498699119        2.3449508721
 C          1.3834427931        1.8500227351        0.5966938822
 C         -0.0017771406        1.3290857644        0.8829432434
 C         -0.6441950894        1.6257606305        2.0789759619
 C         -1.9268893977        1.1658991686        2.3222019594
 C         -2.5927988381        0.4021432095        1.3806478585
 C         -1.9591790325        0.0987567197        0.1825367730
 C         -0.6734655142        0.5606007170       -0.0580104812
 H         -0.1902199627        0.3328609291       -0.9972530985
 N         -2.6278454795       -0.6823391651       -0.7798072891
 S         -4.1212771246       -0.1152167950       -1.3077804200
 O         -4.3064768366       -0.6858880689       -2.6238103933
 O         -4.1991831620        1.3244728064       -1.2131312921
 C         -5.2807017727       -0.8643284561       -0.1829844856
 C         -6.1480706743       -0.0717520759        0.5430211675
 C         -7.0459415682       -0.6791319750        1.4072755701
 C         -7.0606769679       -2.0601797388        1.5287622573
 C         -6.1849668313       -2.8420369391        0.7898644053
 C         -5.2858735781       -2.2414597251       -0.0767699441
 H         -4.5915981229       -2.8114344985       -0.6714795298
 H         -6.1995685062       -3.9157035919        0.8865724638
 H         -7.7590639419       -2.5304569440        2.2028670833
 H         -7.7280293853       -0.0732968759        1.9818036860
 H         -6.0956335682        0.9982048901        0.4199528671
 H         -2.0460373776       -0.9084614107       -1.5747037859
 H         -3.5914539368        0.0407616289        1.5638070359
 H         -2.4135101253        1.4034477032        3.2556732308
 H         -0.1274249140        2.2136183434        2.8233301109
 H          1.8117450549        2.1843232157        1.5549042556
 C          1.3733429943        3.0538034354       -0.3373084214
 C          0.1992475698        3.4517094169       -1.1761033970
 C          0.5768473603        4.2746765976        0.0168091245
 H          1.0189384635        5.2466241597       -0.1408640071
 H         -0.0652952937        4.2140877373        0.8825245056
 H          0.4004857433        3.8386980905       -2.1636791997
 H         -0.7012629411        2.8587809819       -1.1244197393
 H          2.3497521263        3.2252160350       -0.7800909022
