  62
        -98.94467403
 C         -2.5766574659        0.1688645322        0.3568427183
 C         -2.1613251897        0.7070580253       -0.8855858036
 C         -1.6940067352        2.1002027782       -0.8549687829
 C         -1.6707053356        2.7629132743        0.3152673104
 C         -1.2010755116        4.1775403040        0.4952191249
 C          0.2888832019        4.2403548334        0.8547200698
 C          1.1883775717        3.4214020238       -0.0716264343
 H          0.9927392683        2.3564753718        0.0790867823
 H          2.2205147964        3.5965472586        0.2424524917
 C          1.0443532939        3.7551694855       -1.5629854166
 H          2.0422863465        3.8097101999       -2.0028094756
 H          0.5806679272        4.7358532815       -1.6819200628
 C          0.2614882785        2.7155204828       -2.3678608570
 H          0.6413103067        1.7178827411       -2.1335744008
 H          0.4420226071        2.8995565781       -3.4306185952
 C         -1.2579479854        2.7130055855       -2.1554099018
 H         -1.7024891407        2.0937381387       -2.9400369657
 H         -1.6483685561        3.7287443289       -2.2544584647
 H          0.4175082338        3.8621870289        1.8718626001
 H          0.6019855547        5.2864368654        0.8366594758
 H         -1.3870240276        4.7326162525       -0.4223520226
 H         -1.7786357397        4.6271074787        1.3053276236
 O         -2.0619080690        2.2062675856        1.4919999902
 C         -2.4980944512        0.8935250385        1.5441522343
 O         -2.7952824661        0.4936852685        2.6909639550
 H         -0.4791677932       -1.0414117012        1.1408239806
 C         -0.6288593537       -1.8941142615        0.4896779898
 C         -1.9044052698       -2.1832188114        0.0191646036
 C         -2.0641726131       -3.2923681043       -0.8004501297
 C         -0.9728938072       -4.0679103176       -1.1573958990
 C          0.2997233091       -3.7491028730       -0.7192443859
 C          0.4652775405       -2.6508509377        0.1136367709
 N          1.7764290076       -2.2640583024        0.5285676975
 S          2.0609439088       -0.6073751414        0.4871820457
 O          1.7309963666        0.0209803422        1.7532359960
 O          1.4335881052       -0.0782067263       -0.6952763789
 C          3.8313703214       -0.6064723899        0.2741846817
 C          4.3333936459       -1.0465297765       -0.9356716965
 C          5.7061000893       -1.0892503718       -1.1168813941
 C          6.5506882309       -0.6933923215       -0.0898089533
 C          6.0325285077       -0.2519783279        1.1178360203
 C          4.6592797973       -0.2086511420        1.3050323313
 H          4.2106826919        0.1302146894        2.2252631181
 H          6.6906150615        0.0572948928        1.9140147691
 H          7.6192281001       -0.7280509657       -0.2324495481
 H          6.1122864757       -1.4304784332       -2.0555045946
 H          3.6364132418       -1.3367525706       -1.7047599434
 H          2.0457597343       -2.6470487115        1.4241979571
 H          1.1580412782       -4.3310786522       -1.0126347711
 H         -1.1161714411       -4.9225408526       -1.8008432895
 H         -3.0450576578       -3.5442134507       -1.1700076958
 C         -3.0351880342       -1.2764346561        0.4420698959
 H         -3.2408020410       -1.4657760915        1.5068892796
 C         -4.3097375232       -1.4875682620       -0.3475547293
 C         -5.2931461058       -2.5367845145        0.0742206007
 C         -5.6150236257       -1.0864941418        0.2689927206
 H         -6.3646400646       -0.6322425353       -0.3611284987
 H         -5.5847151717       -0.6832119317        1.2711208873
 H         -5.0552224049       -3.1228362578        0.9491378357
 H         -5.8279172097       -3.0791416000       -0.6907125328
 H         -4.1767602139       -1.3003930318       -1.4066296883
 O         -2.1987497445        0.0637204539       -1.9666295199
