  62
        -98.93454617
 C         -1.6478778947       -0.2306709517        0.9548817538
 C         -2.8769425384       -0.8755353084        0.6789807878
 C         -4.0389043049        0.0032650525        0.4465339233
 C         -3.8865837007        1.3370471612        0.4865993917
 C         -4.9316697523        2.4110147811        0.3152467176
 C         -5.9640883645        2.2257274858       -0.8052407450
 C         -5.4429208921        1.5024907138       -2.0556308025
 H         -5.6932651498        2.0946304074       -2.9378826770
 H         -4.3552635267        1.4213791864       -2.0157904494
 C         -6.0515623985        0.1099190495       -2.2374395715
 H         -5.9423629063       -0.1871553373       -3.2833244554
 H         -7.1213189722        0.1644997430       -2.0236953113
 C         -5.4270661897       -0.9948134046       -1.3861293222
 H         -4.4186968784       -1.2147999341       -1.7470418066
 H         -6.0208539731       -1.9017581062       -1.5236616065
 C         -5.3279632411       -0.6942909712        0.1184529351
 H         -6.1899774856       -0.1300727147        0.4656618686
 H         -5.2994818057       -1.6491534026        0.6501832546
 H         -6.8290507278        1.6879850097       -0.4193861022
 H         -6.3124248417        3.2227957545       -1.0802165334
 H         -5.4559842925        2.5293448770        1.2680394084
 H         -4.3665170723        3.3301887454        0.1433746563
 O         -2.6800888624        1.9185991232        0.7396524531
 C         -1.5471318344        1.1636468358        0.9754053675
 O         -0.5214427198        1.8389705656        1.1939513307
 H          2.0231851611       -0.1670534109        0.2595545336
 C          1.5617157002       -0.9021486937       -0.3820622231
 C          0.3173547401       -1.4166037407       -0.0490189855
 C         -0.2748735146       -2.3453775404       -0.8982632888
 C          0.3738832822       -2.7481457748       -2.0508496953
 C          1.6275881135       -2.2537162769       -2.3660310291
 C          2.2267291539       -1.3237980527       -1.5247573897
 N          3.4892196344       -0.7938802299       -1.8220983653
 S          4.5761174910       -0.4456689646       -0.5993929498
 O          5.8667816886       -0.4559305980       -1.2545159613
 O          4.4254355479       -1.3448446588        0.5204427311
 C          4.1887742956        1.2229032003       -0.1182447835
 C          4.1314872560        2.1901251686       -1.1017722282
 C          3.8514779023        3.4971727135       -0.7385236717
 C          3.6373783124        3.8138200101        0.5944344194
 C          3.7029943936        2.8322345784        1.5705307931
 C          3.9822070243        1.5229072914        1.2130461400
 H          4.0366185214        0.7280107531        1.9407145223
 H          3.5319103510        3.0795399543        2.6059845364
 H          3.4155703403        4.8311980715        0.8756797176
 H          3.7980063755        4.2647077276       -1.4938635154
 H          4.3062777730        1.9063698135       -2.1262299863
 H          3.9416064142       -1.1913650230       -2.6321356450
 H          2.1392701962       -2.5823392952       -3.2580434706
 H         -0.0955626452       -3.4666743838       -2.7059388485
 H         -1.2479604606       -2.7393964734       -0.6487457365
 C         -0.3506520630       -0.9732492880        1.2306886361
 H          0.3126731680       -0.2385398754        1.7073806641
 C         -0.5095921023       -2.1512296931        2.1737265697
 C          0.7203391445       -2.7379967258        2.7965816765
 C         -0.2495596268       -1.9627783710        3.6361659438
 H         -0.8644164366       -2.5004612343        4.3423554265
 H          0.0397390184       -0.9770431275        3.9709813068
 H          1.6707738306       -2.2840317345        2.5548737591
 H          0.7704892142       -3.8084310046        2.9259772968
 H         -1.3032376001       -2.8288332882        1.8892873163
 O         -3.0317001143       -2.1245653206        0.6322995426
