  62
        -98.93376482
 C         -1.9924953095       -0.7006557107       -0.4722931106
 C         -3.1085387895       -1.2870114708        0.1780080093
 C         -4.3877577096       -0.5719201311        0.0631686690
 C         -4.4292215498        0.5856786787       -0.6203849913
 C         -5.6327279899        1.4739749784       -0.7597506517
 C         -5.8421368503        2.2830522186        0.5362606281
 C         -7.1255632204        1.9412930685        1.2938166780
 H         -7.0556966407        2.4050572887        2.2801108379
 H         -7.9740393404        2.3943570782        0.7766491477
 C         -7.4245486801        0.4486933385        1.4646335682
 H         -8.1989716103        0.3657780284        2.2302031580
 H         -7.8549814099        0.0528934682        0.5434935682
 C         -6.2356474000       -0.4322551712        1.8695026486
 H         -5.4735157102        0.1599939491        2.3765333286
 H         -6.5913853700       -1.1739220111        2.5875596186
 C         -5.5882841596       -1.2082514013        0.7072396288
 H         -6.3428598894       -1.4207834316       -0.0552522713
 H         -5.2259564095       -2.1678592411        1.0877494591
 H         -4.9794081104        2.1188716690        1.1855179283
 H         -5.8578477505        3.3484036886        0.3011603479
 H         -5.4466381799        2.1440502583       -1.5994079918
 H         -6.5110936797        0.8719086982       -0.9817929417
 O         -3.3348100198        1.1311880389       -1.2088395912
 C         -2.0889205696        0.5160181291       -1.1491615708
 O         -1.1904874197        1.1511628992       -1.7303887307
 O         -3.0358926394       -2.3631313307        0.8293531995
 C         -0.6601098394       -1.4198448304       -0.3493493902
 C          0.4092744303       -0.4519370801        0.0866059499
 C          0.3713133000        0.0489428902        1.3849686098
 C          1.3152764597        0.9586845204        1.8214033698
 C          2.3219842298        1.3849622705        0.9733119499
 C          2.3717164601        0.8874217403       -0.3217802900
 C          1.4260302204       -0.0326656300       -0.7562233000
 H          1.4624650607       -0.3911323602       -1.7729873199
 N          3.3985082402        1.3099174503       -1.1810423599
 S          4.9564291101        1.3619062608       -0.5785429296
 O          5.1554193097        2.5800191610        0.1668693902
 O          5.8155809503        1.1794532908       -1.7275790394
 C          5.0698754002       -0.0411716590        0.5191139107
 C          5.3041236299        0.1520073513        1.8650043007
 C          5.3457386699       -0.9505412985        2.7035950309
 C          5.1492203903       -2.2204455187        2.1845435311
 C          4.9192028306       -2.3989122590        0.8287690811
 C          4.8781314105       -1.3005617991       -0.0141012691
 H          4.7075116208       -1.4053979894       -1.0734681791
 H          4.7683291809       -3.3882183391        0.4275337013
 H          5.1756823104       -3.0772665785        2.8391247513
 H          5.5266080297       -0.8148939883        3.7577001809
 H          5.4485446196        1.1567195114        2.2274408405
 H          3.3611446205        0.9046313302       -2.1040437898
 H          3.0571644495        2.1074533807        1.2887488699
 H          1.2672229494        1.3434448206        2.8287913797
 H         -0.4195971201       -0.2778209599        2.0462074897
 H         -0.8191757194       -2.1394302203        0.4704346399
 C         -0.2694790090       -2.2412662605       -1.5686685799
 C         -1.3150103486       -2.9233824909       -2.3979718000
 C         -0.5230317588       -1.7902876708       -2.9749130501
 H          0.2197168814       -2.0178484208       -3.7262955899
 H         -1.0104705190       -0.8392399310       -3.1206015003
 H         -1.1198173684       -3.9237936009       -2.7537820898
 H         -2.3490979587       -2.7444800811       -2.1417210302
 H          0.6463891011       -2.7991678903       -1.3974521697
