  62
        -98.95135756
 C         -2.3389611413       -0.0764303024        0.1135742083
 C         -1.6121699870        0.4866797039       -0.9617897192
 C         -1.4446267391        1.9443474655       -0.9276561290
 C         -1.8899397552        2.6399779357        0.1343315575
 C         -1.7967362406        4.1300058975        0.3217019107
 C         -0.4365579694        4.6047986938        0.8507093440
 C          0.6956744732        4.6047814930       -0.1768045344
 H          0.3669826234        5.1236429328       -1.0784567612
 H          1.5162680580        5.1827032982        0.2531555431
 C          1.2199512332        3.2096708667       -0.5444071851
 H          2.3132949868        3.2253840343       -0.5571115239
 H          0.9286855857        2.4904495935        0.2251548493
 C          0.7623664648        2.6981148480       -1.9095124245
 H          1.1614651740        3.3460508090       -2.6937303919
 H          1.1814667388        1.7001377791       -2.0505043832
 C         -0.7589766936        2.6098536156       -2.0845906697
 H         -1.1742911630        3.6068139812       -2.2351256491
 H         -0.9629555037        2.0089991888       -2.9746647773
 H         -0.5668808077        5.6259039541        1.2174743112
 H         -0.1530432990        3.9780028749        1.7001005049
 H         -2.0193182294        4.6348573770       -0.6191321459
 H         -2.5642421295        4.3986930783        1.0509302594
 O         -2.5177917625        2.0508921239        1.1867229393
 C         -2.7613448055        0.6882760447        1.1999466661
 O         -3.3606670958        0.2812493769        2.2180754721
 O         -1.1382584729       -0.1906667203       -1.9119082033
 C         -2.6064299648       -1.5715915420        0.1535854564
 C         -1.2952118274       -2.3185124594        0.1939391395
 C         -1.0111129919       -3.4312777576       -0.5876280260
 C          0.2274178281       -4.0453220435       -0.5070006448
 C          1.2125251564       -3.5509559474        0.3287805966
 C          0.9343030791       -2.4421443824        1.1197316168
 C         -0.3205173485       -1.8581740029        1.0698331538
 H         -0.5263787275       -1.0012531130        1.6946688258
 N          1.9090148009       -1.8694092803        1.9641065206
 S          2.3552510246       -0.2881054853        1.6233357593
 O          3.4303248081        0.0052786214        2.5466169968
 O          1.2046123284        0.5744852192        1.6901744052
 C          3.0088687862       -0.3720824503       -0.0347335717
 C          2.1449637363       -0.5440996877       -1.0980228437
 C          2.6759251253       -0.6972871906       -2.3703759490
 C          4.0486138915       -0.6732421664       -2.5588407519
 C          4.9025589606       -0.4968365833       -1.4801426230
 C          4.3802326460       -0.3524941422       -0.2053971720
 H          5.0035469202       -0.2174240832        0.6637969476
 H          5.9703157935       -0.4758434712       -1.6276073437
 H          4.4531782538       -0.7918995988       -3.5515511784
 H          2.0010261780       -0.8322776703       -3.2007414076
 H          1.0782072825       -0.5507855792       -0.9375598112
 H          2.7430133077       -2.4326391457        2.0633085479
 H          2.1873434225       -4.0130338652        0.3694567027
 H          0.4349036313       -4.9094089489       -1.1193539445
 H         -1.7572157784       -3.8141537711       -1.2643491505
 H         -3.1319837135       -1.7584787726        1.1019605766
 C         -3.5041772092       -1.9818541077       -0.9948030568
 C         -4.4217142354       -3.1578945464       -0.8519409397
 C         -4.9815268436       -1.7680967886       -0.8678949337
 H         -5.5324408482       -1.4409137682       -1.7367688306
 H         -5.3428867457       -1.3489883506        0.0603378994
 H         -4.5935024265       -3.7863403234       -1.7127308066
 H         -4.4131560621       -3.6879792719        0.0885230648
 H         -3.0536600151       -1.7955443501       -1.9626413719
