  62
        -98.93907056
 C          2.4972158523        1.2322983571        0.3424809917
 C          2.5231137661        0.4112292932       -0.8076665569
 C          3.2540669007       -0.8682881755       -0.6963216476
 C          3.8388982321       -1.1821917855        0.4745567716
 C          4.6001271694       -2.4304795171        0.8351852495
 C          3.6790150861       -3.6348767855        1.0853063542
 C          2.5651208366       -3.8160059329        0.0572014196
 H          1.9279370407       -4.6370438094        0.3975367708
 H          1.9418881443       -2.9190694657        0.0346891465
 C          3.0338600894       -4.1442645636       -1.3585831760
 H          3.6292540048       -5.0596927365       -1.3351031939
 H          2.1392126173       -4.3439432895       -1.9541838916
 C          3.8412498511       -3.0542524396       -2.0675069355
 H          3.8762006809       -3.3156882307       -3.1290324585
 H          4.8706612231       -3.0368596533       -1.7196766568
 C          3.2334041089       -1.6578192923       -1.9827138629
 H          3.7215989319       -1.0178763493       -2.7275666779
 H          2.1814756399       -1.7041925943       -2.2893721090
 H          4.2923582450       -4.5367679796        1.1215253035
 H          3.2100130875       -3.5060445534        2.0640570249
 H          5.3324237885       -2.6572188686        0.0663246144
 H          5.1420078593       -2.2106482602        1.7577503529
 O          3.7704339798       -0.3638310302        1.5649979422
 C          3.0980777668        0.8420531057        1.5371092889
 O          3.1002592906        1.4628344535        2.6207621322
 H          0.1869490281        0.8091454792        1.5490483053
 C         -0.3614294198        1.3248071834        0.7686643700
 C          0.2923407284        2.2915217751        0.0136044302
 C         -0.4205745772        2.9464175686       -0.9808985213
 C         -1.7451377907        2.6220257389       -1.2212306698
 C         -2.3870299158        1.6507409871       -0.4755685068
 C         -1.6856976860        0.9967577667        0.5294202949
 N         -2.3337958182        0.0113428084        1.3013499726
 S         -2.9854342578       -1.2941147034        0.4628919616
 O         -3.0329002876       -2.3748892571        1.4243681314
 O         -2.2627996925       -1.5549277351       -0.7608743578
 C         -4.6466872242       -0.7680793363        0.0990631071
 C         -5.0940074788       -0.7481949879       -1.2072782856
 C         -6.3933067924       -0.3378959816       -1.4636502681
 C         -7.2166642769        0.0426598767       -0.4150391335
 C         -6.7522358539        0.0150031554        0.8917670555
 C         -5.4552711455       -0.3954503093        1.1551875463
 H         -5.0552802818       -0.4349055860        2.1545864214
 H         -7.3952871543        0.3122028571        1.7043767698
 H         -8.2263454407        0.3632297123       -0.6176014297
 H         -6.7558886712       -0.3154625920       -2.4787611960
 H         -4.4144680857       -1.0455389202       -1.9900518174
 H         -1.7673379635       -0.3268906545        2.0668033335
 H         -3.4159571945        1.3916682057       -0.6648125850
 H         -2.2846858124        3.1323487641       -2.0043701376
 H          0.0641216566        3.7007238528       -1.5782752358
 C          1.7479391465        2.5531096093        0.3176858041
 H          1.8160644833        2.9590847742        1.3377009796
 C          2.4093266491        3.5214564739       -0.6393267023
 C          2.2839751399        4.9984502096       -0.4207535505
 C          3.5908454894        4.3112742617       -0.1654461693
 H          4.4072307605        4.4792176903       -0.8516326812
 H          3.9049712351        4.1669223413        0.8583264683
 H          1.7119040849        5.3304127177        0.4323105433
 H          2.2060192256        5.6427375251       -1.2833241214
 H          2.4310188783        3.1507205030       -1.6574235682
 O          1.9597787516        0.7223799125       -1.8895309667
