  62
        -98.94021981
 C         -2.2545144100       -1.0425019200       -0.3634308706
 C         -3.5815916500       -1.0858293503        0.1319859395
 C         -4.4851193501       -0.0310058901       -0.3437571698
 C         -4.0210104403        0.8897990303       -1.2079830694
 C         -4.8134596404        2.0529841306       -1.7292034287
 C         -4.6297917704        3.2907294701       -0.8399728781
 C         -4.8231560802        3.0133404693        0.6509771217
 H         -4.0251077101        2.3512957392        0.9956854613
 H         -4.7006481102        3.9629540191        1.1764199822
 C         -6.1837609301        2.4005290891        1.0115709216
 H         -6.8899018702        2.5623752794        0.1965252117
 H         -6.5775379301        2.9166873686        1.8895912619
 C         -6.1385017600        0.9103229289        1.3545471608
 H         -5.3636059499        0.7310072086        2.1040687206
 H         -7.0971630299        0.6355194886        1.8022255708
 C         -5.8958944201       -0.0396088305        0.1746583403
 H         -6.0797544700       -1.0591852507        0.5253797398
 H         -6.6026123702        0.1810479699       -0.6275525195
 H         -5.3358832205        4.0571524402       -1.1646930277
 H         -3.6177489204        3.6751984503       -0.9879639580
 H         -4.4616826205        2.2842624011       -2.7360045087
 H         -5.8652727004        1.7778327705       -1.7756982088
 O         -2.7455359003        0.8926985207       -1.6729439396
 C         -1.8235362302       -0.0567346595       -1.2516106801
 O         -0.6889054503        0.0865577909       -1.7457689202
 H          1.3876547400       -1.4204217497       -0.3101463712
 C          1.0291672301       -1.1337340702        0.6635818890
 C         -0.2762439499       -1.4032334405        1.0435863190
 C         -0.7072282198       -0.9944267512        2.3042076793
 C          0.1469097503       -0.3289786016        3.1609494395
 C          1.4459366402       -0.0497847713        2.7733171295
 C          1.8867721501       -0.4535269306        1.5188356893
 N          3.2178117601       -0.2118069803        1.1258526793
 S          3.5156984698        0.3733901605       -0.4334764305
 O          2.7593695697        1.5845545306       -0.6615963598
 O          3.3506208298       -0.6979597290       -1.3808150510
 C          5.2504778198        0.7638940305       -0.2770845005
 C          5.6354593398        2.0678601004       -0.0296923498
 C          6.9838840098        2.3536311505        0.1168264202
 C          7.9195869098        1.3351705806        0.0172517095
 C          7.5184434999        0.0310378107       -0.2322321311
 C          6.1719430199       -0.2607225593       -0.3810006011
 H          5.8132845499       -1.2559748893       -0.5849886616
 H          8.2490717999       -0.7576116192       -0.3122426016
 H          8.9682241298        1.5598758106        0.1314839095
 H          7.2983877897        3.3671538704        0.3070329306
 H          4.8727534997        2.8278061304        0.0301990906
 H          3.7023112801        0.3730422594        1.7955702295
 H          2.1146602102        0.4758661684        3.4385097897
 H         -0.2003671296       -0.0186069421        4.1349907297
 H         -1.7275233297       -1.2023413914        2.5962870893
 C         -1.2689806699       -2.0869089901        0.1355695188
 H         -1.8674296598       -2.7765023105        0.7481771485
 C         -0.6355370700       -2.8685583495       -0.9937856217
 C          0.0182568101       -4.1839014296       -0.6967470624
 C         -1.2762916599       -4.1435951193       -1.4502432323
 H         -1.2683331200       -4.3737020688       -2.5050909424
 H         -2.1743766599       -4.4604515497       -0.9403127224
 H          0.9197971101       -4.4405988393       -1.2317669227
 H         -0.0011541297       -4.5282978601        0.3262358974
 H         -0.1863054001       -2.2390948691       -1.7531197614
 O         -3.9902881498       -1.9655400807        0.9365930391
