  62
        -98.93946281
 C          1.1515612780        1.5560491794        0.2461789966
 C          1.1796531165        0.2675121201       -0.3412180860
 C          2.2352070083       -0.6457062781        0.1395139386
 C          3.0926873591       -0.2169459514        1.0829833173
 C          4.2687950468       -0.9750509054        1.6315459211
 C          5.4794113525       -0.9543448628        0.6721661941
 C          5.1352955793       -0.9246627997       -0.8177547986
 H          4.4220910325       -0.1190176772       -1.0024770118
 H          6.0478513545       -0.6769519680       -1.3663674697
 C          4.5901729417       -2.2327262114       -1.3909864308
 H          4.2516679426       -2.0368788111       -2.4111299215
 H          5.4049792445       -2.9593925852       -1.4430942321
 C          3.4487734096       -2.8764073933       -0.6075369501
 H          3.8101528855       -3.2019541561        0.3648883582
 H          3.1481785848       -3.7803324025       -1.1461715257
 C          2.1843358913       -2.0295903820       -0.4559812163
 H          1.7189018509       -1.8993031768       -1.4388372241
 H          1.4668887783       -2.5957757459        0.1530386799
 H          6.0568329721       -0.0529577732        0.8884634857
 H          6.1114140260       -1.8174984528        0.8849544333
 H          4.5555661981       -0.4922656878        2.5679806027
 H          3.9597338794       -1.9910426134        1.8645193921
 O          3.0330220584        1.0324154796        1.6197556323
 C          2.0613220423        1.9354778121        1.2322203750
 O          2.1160439831        3.0350634262        1.8237010057
 H         -0.8401380270        0.3601328061        1.1253456536
 C         -1.6059479289        1.0812306508        0.8879257247
 C         -1.2859274181        2.2619486998        0.2388933594
 C         -2.3093089298        3.1685559556       -0.0298134756
 C         -3.6100397890        2.8995979294        0.3505976751
 C         -3.9274780718        1.7098506506        0.9828680972
 C         -2.9167715734        0.7931973479        1.2430427149
 N         -3.1974296155       -0.4357616197        1.8609510190
 S         -2.4147255141       -1.8226461303        1.3606124811
 O         -3.2660587706       -2.8943106263        1.8416192513
 O         -1.0604813907       -1.8490927837        1.8573708971
 C         -2.4312536089       -1.8426730524       -0.4247233657
 C         -3.4321839212       -1.2083826966       -1.1321052633
 C         -3.4288492379       -1.2904187348       -2.5153742303
 C         -2.4403992402       -2.0111158575       -3.1657246934
 C         -1.4540025992       -2.6586384523       -2.4404425407
 C         -1.4494427814       -2.5741606209       -1.0585033510
 H         -0.6946496218       -3.0543396063       -0.4576918447
 H         -0.6837057524       -3.2210602236       -2.9434837561
 H         -2.4375100595       -2.0675285690       -4.2429918082
 H         -4.1973511772       -0.7871994710       -3.0801092359
 H         -4.1956656813       -0.6503431289       -0.6160402868
 H         -4.1741770317       -0.6120173685        2.0465901275
 H         -4.9436304169        1.4926395468        1.2754112778
 H         -4.3887192243        3.6183301105        0.1470434681
 H         -2.0758384286        4.0926102298       -0.5339619709
 C          0.1315195491        2.5952834775       -0.1687699065
 H          0.4182273921        3.5177190906        0.3583330412
 C          0.2030881336        2.8536620056       -1.6660968898
 C          0.1038500582        4.2456690998       -2.2104220591
 C          1.4180151555        3.5265075378       -2.2292698079
 H          1.8110649502        3.1781727541       -3.1723316836
 H          2.1795761851        3.8379303792       -1.5280422554
 H         -0.4120048841        4.3963590001       -3.1463983624
 H         -0.0043358727        5.0584031042       -1.5076899026
 H         -0.2280426280        2.0470757259       -2.2466595701
 O          0.3733178391       -0.1089934292       -1.2312538033
