  62
        -98.93955942
 C          1.2899290825        1.5705974439       -0.3709324117
 C          2.5518155856        1.5681479609        0.2736599090
 C          3.4353187904        0.4328354153       -0.0281517386
 C          3.0034651148       -0.5249694814       -0.8688631978
 C          3.7441972404       -1.7902264176       -1.1982400403
 C          3.6154282724       -2.7933041789       -0.0339131201
 C          4.9331528557       -3.1133261007        0.6721209231
 H          4.6898505379       -3.6529032791        1.5899867581
 H          5.5207431955       -3.7845844074        0.0422350201
 C          5.8132064381       -1.9092450540        1.0209114289
 H          6.3613414924       -1.5853155828        0.1348579471
 H          6.5601936794       -2.2581160411        1.7372406925
 C          5.0867859812       -0.6973200403        1.6185360384
 H          5.7218824290       -0.2725179743        2.3986942726
 H          4.1571723803       -1.0029735155        2.0990895075
 C          4.7947588760        0.4338540080        0.6147548985
 H          4.8535470066        1.3904087891        1.1424482057
 H          5.5651894960        0.4401361169       -0.1613875452
 H          3.1937469892       -3.7303493567       -0.4007350193
 H          2.9055336262       -2.3867896084        0.6890709792
 H          4.7901666843       -1.5631547237       -1.3923280941
 H          3.3035668456       -2.1991900435       -2.1074909158
 O          1.7877232463       -0.4865612736       -1.4697300932
 C          0.8992869037        0.5535748094       -1.2429030037
 O         -0.1688283029        0.4529830657       -1.8739139388
 O          2.9222523285        2.4766699190        1.0646648983
 C          0.3248734732        2.7008399941       -0.0485964842
 C         -0.8157245821        2.0931592638        0.7274909307
 C         -0.6675003884        1.8650961984        2.0928480804
 C         -1.6487455029        1.2074652062        2.8111422614
 C         -2.7901502533        0.7440957829        2.1790614330
 C         -2.9404198494        0.9580635496        0.8158591052
 C         -1.9712380041        1.6497391121        0.1026992698
 H         -2.1023549130        1.8014065021       -0.9565398431
 N         -4.0786581099        0.4488679056        0.1525947909
 S         -4.2592991285       -1.2174539143        0.1865798680
 O         -5.2462947437       -1.5159102383       -0.8266299085
 O         -4.5908884167       -1.6201237707        1.5308306045
 C         -2.6755618828       -1.8933795807       -0.2761838366
 C         -1.7272948493       -2.1231326477        0.6998645214
 C         -0.4861099199       -2.6082695446        0.3226107048
 C         -0.2158813380       -2.8548952769       -1.0137411151
 C         -1.1780198979       -2.6158773773       -1.9812105603
 C         -2.4188012757       -2.1253507700       -1.6117921148
 H         -3.1939856327       -1.9271160154       -2.3347497280
 H         -0.9597786476       -2.7972234700       -3.0212640641
 H          0.7544748154       -3.2250363316       -1.3038592488
 H          0.2685360358       -2.7874070052        1.0726162863
 H         -1.9743842511       -1.9257148662        1.7303381927
 H         -4.1350551229        0.7586955658       -0.8080962243
 H         -3.5531163776        0.2022630543        2.7143256552
 H         -1.5218875489        1.0447434938        3.8708797760
 H          0.2379816617        2.1971399265        2.5813785695
 H          0.8769861805        3.3777259562        0.6164384757
 C         -0.1024384963        3.4683086821       -1.2811573787
 C         -0.7834683152        4.7934067224       -1.1179748941
 C          0.6182530641        4.7306026183       -1.6438785884
 H          0.7880781561        4.9441873118       -2.6885692207
 H          1.4221100212        5.0510482533       -0.9975440107
 H         -1.5781189232        5.0540958295       -1.8002815204
 H         -0.9320652192        5.1556388434       -0.1119529651
 H         -0.4199166139        2.8318763255       -2.0978899081
