  62
        -98.94505205
 C          1.5344431426        0.8078196882       -0.4406693156
 C          2.8357576868        1.3614340539       -0.4546580210
 C          3.9394311762        0.4001459719       -0.5839816004
 C          3.6594594371       -0.9116520421       -0.6936906539
 C          4.6872759515       -2.0016877814       -0.7845064705
 C          5.0498920195       -2.5411578210        0.6060626925
 C          5.3812100492       -1.4498591446        1.6238645496
 H          4.4818300981       -0.8621454469        1.8214615558
 H          5.6516272595       -1.9468473847        2.5580596182
 C          6.5170120901       -0.5088813610        1.1984655966
 H          7.1902873420       -0.3664198828        2.0464686233
 H          7.0983011245       -0.9674671881        0.3976944306
 C          6.0570148045        0.8818504490        0.7570231045
 H          5.3977343423        1.3083434266        1.5174321399
 H          6.9378725892        1.5261371432        0.6907481998
 C          5.3384068537        0.9492348202       -0.5966029865
 H          5.9419847689        0.4515433970       -1.3584140667
 H          5.2433765902        2.0044499841       -0.8694229010
 H          4.2029035383       -3.1170050447        0.9857848458
 H          5.9016530176       -3.2160432570        0.5036050947
 H          5.5764253667       -1.6156934193       -1.2792058495
 H          4.2736195753       -2.8148711740       -1.3830978236
 O          2.3949636843       -1.4046016850       -0.6874300497
 C          1.2990776452       -0.5634345710       -0.5492886327
 O          0.2003561316       -1.1454660570       -0.5403141761
 O          3.0639310302        2.5981358931       -0.3594396354
 C          0.3377722629        1.7320376587       -0.3131763059
 C         -0.5138440396        1.3201145694        0.8611025892
 C          0.0944721693        1.0971410229        2.0942983064
 C         -0.6483198959        0.6948404615        3.1864406671
 C         -2.0134067075        0.4952434267        3.0722396640
 C         -2.6326012088        0.7303812963        1.8514104400
 C         -1.8853833227        1.1534938058        0.7599065655
 H         -2.3957477943        1.3513734912       -0.1665776526
 N         -4.0147785646        0.5574618698        1.7082198266
 S         -4.6852486530        0.1131785352        0.2465812660
 O         -4.7335765321        1.2482349852       -0.6414450120
 O         -5.9696057056       -0.4494789030        0.6082907919
 C         -3.6429809760       -1.1610510603       -0.4381761026
 C         -3.3539385305       -2.2668820898        0.3347765425
 C         -2.5657489303       -3.2704672908       -0.2020079466
 C         -2.0856220705       -3.1547353729       -1.4963196528
 C         -2.3891395597       -2.0410465958       -2.2612237542
 C         -3.1737853293       -1.0322670162       -1.7284789534
 H         -3.4262311476       -0.1446392659       -2.2875923015
 H         -2.0076271307       -1.9502091299       -3.2661197469
 H         -1.4636938494       -3.9330531462       -1.9093559763
 H         -2.3207586501       -4.1364793167        0.3919014870
 H         -3.7442417800       -2.3330437802        1.3376467857
 H         -4.4824310498        0.1274285712        2.4917334269
 H         -2.5936915867        0.1667142066        3.9207320179
 H         -0.1608271030        0.5238262718        4.1345419537
 H          1.1632745507        1.2384166736        2.1817525340
 H          0.7529346835        2.7307322524       -0.1111747065
 C         -0.4260386770        1.7754156893       -1.6201090002
 C         -1.2260737510        2.9874532314       -1.9898305133
 C          0.0470878751        2.6786277138       -2.7175551833
 H         -0.0112331911        2.3272696858       -3.7367711674
 H          0.9132073286        3.2920838150       -2.5163379478
 H         -2.1664740239        2.8503224436       -2.5030219244
 H         -1.2261128328        3.8156403923       -1.2971506407
 H         -0.8117511731        0.8019400525       -1.9039090650
