  62
        -98.94103588
 C          1.5646793285       -0.1312531873        0.8198743548
 C          2.8685055501       -0.2673645602        1.3625084388
 C          3.9472780849        0.4129745603        0.6381681150
 C          3.6643771862        1.1064006639       -0.4790696312
 C          4.6499731411        1.8722386532       -1.3194451500
 C          5.4019486114        1.0084104164       -2.3412246568
 C          6.4590485205        0.0740627627       -1.7512327113
 H          7.0532293522       -0.3048127908       -2.5852406642
 H          7.1292533014        0.6449729710       -1.1077752432
 C          5.8865052918       -1.1184310719       -0.9722249277
 H          4.8332725051       -1.2507797729       -1.2308065182
 H          6.4058436627       -2.0319289812       -1.2708491216
 C          6.0121686957       -1.0025654814        0.5469857672
 H          5.5426044748       -1.8805681072        0.9980525488
 H          7.0674843515       -1.0038625931        0.8288934312
 C          5.3490854310        0.2465070759        1.1420967968
 H          5.3013754330        0.1247263553        2.2271104103
 H          5.9429813253        1.1317579906        0.9152988291
 H          4.6735474077        0.4229394446       -2.9069957874
 H          5.8974936727        1.6868556810       -3.0395277337
 H          4.0759476516        2.6257979548       -1.8627287954
 H          5.3664690517        2.3799715342       -0.6730531222
 O          2.4048299926        1.2034596924       -0.9764361490
 C          1.3262274144        0.5720553842       -0.3629284483
 O          0.2509306862        0.7266108681       -0.9673866639
 O          3.1194478118       -0.9296003997        2.4047674395
 C          0.4331320166       -0.8484444511        1.5351574378
 C         -0.3732677588       -1.6475968778        0.5450551018
 C          0.2098189530       -2.7579598618       -0.0599102551
 C         -0.4851403986       -3.4942760960       -0.9995002190
 C         -1.7742794047       -3.1385133266       -1.3552244576
 C         -2.3622982196       -2.0275491240       -0.7616452807
 C         -1.6641782322       -1.2950992164        0.1884159647
 H         -2.1298918141       -0.4332667252        0.6343584318
 N         -3.6425813022       -1.6181084410       -1.1408262779
 S         -4.6096417362       -0.6379988223       -0.2141213175
 O         -4.5990956653       -1.0343972288        1.1759543228
 O         -5.9012275563       -0.6963382154       -0.8668728630
 C         -3.9476646644        1.0072743906       -0.3815905418
 C         -4.2016654932        1.9106276072        0.6318125728
 C         -3.7327612327        3.2084225252        0.5091825468
 C         -3.0181004601        3.5779963058       -0.6196280055
 C         -2.7726119449        2.6596358498       -1.6279191471
 C         -3.2443220287        1.3619914029       -1.5141503751
 H         -3.0527225258        0.6274893966       -2.2780774756
 H         -2.2060159545        2.9445870607       -2.4995594951
 H         -2.6464054772        4.5865345184       -0.7114494552
 H         -3.9206659399        3.9240288440        1.2939282193
 H         -4.7490982458        1.5764730149        1.4992165052
 H         -4.1435216797       -2.2077016916       -1.7858914154
 H         -2.3171955985       -3.7080448880       -2.0939634978
 H         -0.0214440083       -4.3533759073       -1.4608413441
 H          1.2207888012       -3.0305831641        0.2116277150
 H          0.9433908390       -1.5566600191        2.2094223202
 C         -0.4232741874        0.0461673468        2.4179113219
 C          0.1815465592        1.2072436952        3.1474163918
 C         -0.7974578153        1.4466275167        2.0391882365
 H         -1.7887184923        1.7920548462        2.2947877439
 H         -0.4363060641        1.8294880736        1.0979449470
 H         -0.1309441404        1.3965594188        4.1632577135
 H          1.2243147635        1.4210394435        2.9627804455
 H         -1.1756928221       -0.5241176617        2.9559478107
