  62
        -98.94625806
 C         -1.7931398788       -1.0981038932       -0.2807458764
 C         -3.1458809835       -1.3035702880        0.0825456547
 C         -4.0896677972       -0.2719314176       -0.3617657281
 C         -3.6457532076        0.7721970066       -1.0853025114
 C         -4.4891052006        1.8911041676       -1.6339138421
 C         -4.7596394143        3.0198961795       -0.6296121062
 C         -5.7459978127        2.6746447287        0.4867396255
 H         -6.0084459635        3.6109723587        0.9832107748
 H         -6.6601520762        2.2707642913        0.0505937502
 C         -5.1979165546        1.6969705445        1.5356716982
 H         -4.1086765197        1.6572095872        1.4619564192
 H         -5.4377088499        2.0640088306        2.5361861415
 C         -5.7531811833        0.2765388560        1.4297585177
 H         -5.2719631416       -0.3380618369        2.1949123751
 H         -6.8263130766        0.2861511315        1.6328999898
 C         -5.5202708739       -0.3932877814        0.0690239965
 H         -6.1821414450        0.0387443250       -0.6812172562
 H         -5.7489267616       -1.4573974260        0.1668268479
 H         -3.8091254870        3.3330926614       -0.1918434639
 H         -5.1618907190        3.8659260026       -1.1915537094
 H         -5.4359997761        1.4917340349       -1.9982654894
 H         -3.9390768418        2.3077273421       -2.4804590332
 O         -2.3387275351        0.9245836061       -1.4273719388
 C         -1.3795345516        0.0080907199       -1.0214011999
 O         -0.2207082575        0.2881014746       -1.3811028618
 O         -3.5430945695       -2.2981463069        0.7463887089
 C         -0.7535590791       -2.1177155829        0.1481193545
 C          0.3078807251       -1.4506604077        0.9864945009
 C         -0.0847321380       -0.7443954521        2.1220093185
 C          0.8470118931       -0.1133901328        2.9219904909
 C          2.1931391453       -0.1648484157        2.6016297165
 C          2.5962187163       -0.8695796858        1.4752449484
 C          1.6577203823       -1.5165620495        0.6809289339
 H          2.0037273128       -2.0488094755       -0.1886110925
 N          3.9595173042       -0.9601425682        1.1315093928
 S          4.4604832693       -0.3942850861       -0.3641486303
 O          3.8043528422       -1.1289784620       -1.4128434888
 O          5.9042017378       -0.4878911952       -0.3253005844
 C          3.9800186138        1.3237017308       -0.3703031581
 C          4.9279887943        2.2693059938       -0.0271499542
 C          4.5555546216        3.6013788418        0.0421257100
 C          3.2426693713        3.9632965319       -0.2209242519
 C          2.3041568310        3.0011093341       -0.5588028005
 C          2.6691609096        1.6651313730       -0.6355099209
 H          1.9473724868        0.9087138744       -0.9016085788
 H          1.2804566987        3.2709450670       -0.7656162221
 H          2.9486524713        4.9996484795       -0.1640315729
 H          5.2855711303        4.3508477507        0.3024561580
 H          5.9368929302        1.9414941341        0.1653845720
 H          4.5795550233       -0.5969555431        1.8426359307
 H          2.9245803049        0.3322758833        3.2207818868
 H          0.5251361449        0.4284929403        3.7984007604
 H         -1.1373474581       -0.6993379982        2.3669581157
 H         -1.2936704877       -2.8341863157        0.7850197956
 C         -0.2064735077       -2.8571492402       -1.0541314350
 C          0.3390502630       -4.2440008032       -0.8973747266
 C         -0.9685421604       -4.0272568041       -1.5965136945
 H         -1.0120615279       -4.1632618543       -2.6667688853
 H         -1.8765717517       -4.3082758081       -1.0830552147
 H          1.1982641658       -4.5269267178       -1.4869514299
 H          0.3201405419       -4.6795262213        0.0902787698
 H          0.2749736647       -2.2005101359       -1.7711141372
