  62
        -98.93883700
 C         -2.4562638500       -0.9381142005        0.3774437500
 C         -2.8430735098        0.2290379889        1.0893054811
 C         -4.2365145498        0.6642168992        0.9350331316
 C         -5.0652848199       -0.0591111800        0.1607397610
 C         -6.5000013399        0.2811439604       -0.1183117886
 C         -6.6321741099        1.1492360215       -1.3772287478
 C         -5.6862491098        2.3498181714       -1.4001560469
 H         -4.6562275598        1.9913884213       -1.4649539273
 H         -5.8903767298        2.9076849522       -2.3165735364
 C         -5.8201796795        3.2861365504       -0.1911041860
 H         -5.8281349594        4.3185314307       -0.5468199252
 H         -6.7717684995        3.1093374901        0.3113790439
 C         -4.6827260495        3.1752743494        0.8261712438
 H         -3.7212127295        3.2557104497        0.3124448238
 H         -4.7575177293        4.0221782688        1.5135973045
 C         -4.6683748896        1.8982849286        1.6760657127
 H         -5.6491959195        1.7490312084        2.1324436126
 H         -3.9349021295        2.0389391978        2.4755220827
 H         -6.4182013601        0.5281509822       -2.2499614584
 H         -7.6646858799        1.4953906817       -1.4506416574
 H         -7.0496397900       -0.6493483294       -0.2696487093
 H         -6.9166267098        0.8025329697        0.7412792219
 O         -4.6670234401       -1.1742737395       -0.4974060700
 C         -3.3609079502       -1.6373549397       -0.4227622805
 O         -3.1648320404       -2.6604757492       -1.1080852314
 O         -2.0546514797        0.8740670382        1.8331268116
 C         -1.0195066701       -1.3919768109        0.5584672195
 C         -0.1075470201       -0.9676998100       -0.5683990802
 C         -0.3804585503       -1.2846725888       -1.8948261704
 C          0.5107758297       -0.9366308081       -2.8935436002
 C          1.6990695498       -0.2958474985       -2.5897741098
 C          1.9799330300        0.0263058903       -1.2674210095
 C          1.0690930000       -0.2958854504       -0.2711909297
 H          1.2957781101       -0.0235459613        0.7495757305
 N          3.1720727701        0.6798110799       -0.9186597290
 S          3.9055940801        0.2452134585        0.5409219405
 O          3.7966726100       -1.1813256216        0.7427474293
 O          3.3775723903        1.0800084677        1.5910838913
 C          5.5995179302        0.6921649686        0.2080877808
 C          6.4720122200       -0.2771233011       -0.2501260601
 C          7.7808592200        0.0794289490       -0.5342487799
 C          8.1920458502        1.3922390588       -0.3587822688
 C          7.3050843404        2.3536873685        0.1026554921
 C          5.9950350003        2.0040117384        0.3895145019
 H          5.2732902405        2.7136915882        0.7593403025
 H          7.6294140905        3.3724474183        0.2410069029
 H          9.2112300802        1.6671240088       -0.5800164387
 H          8.4735362299       -0.6663831408       -0.8895540506
 H          6.1101062199       -1.2866560610       -0.3615680810
 H          3.8359684500        0.7260409705       -1.6794556990
 H          2.4014874998       -0.0437544079       -3.3697536096
 H          0.2854331296       -1.1847298672       -3.9198992804
 H         -1.2910926503       -1.8127823585       -2.1318787508
 H         -0.6698536499       -0.8802837317        1.4664583499
 C         -0.8733153002       -2.8888220811        0.7706076082
 C          0.4158153397       -3.4188300517        1.3206607877
 C         -0.8237183202       -3.4375156823        2.1630744777
 H         -1.2994590703       -4.3864611824        2.3605327870
 H         -0.8944508200       -2.7342994630        2.9804258984
 H          0.7886275596       -4.3561609514        0.9366092968
 H          1.1944678299       -2.7081336520        1.5590509882
 H         -1.3773846404       -3.4778857704        0.0154354578
