  62
        -98.94548298
 C          2.6504441898        1.0412426104        0.2557102806
 C          2.4975344401        0.2816937905       -0.9299943695
 C          3.0785498701       -1.0685433695       -0.9036524496
 C          3.7187018398       -1.4910017896        0.2016830805
 C          4.3058990298       -2.8601552196        0.3836498905
 C          3.2899607097       -3.8184289497        1.0211335302
 C          1.9169946598       -3.8030431597        0.3477061699
 H          1.2916391997       -4.5369364397        0.8614986997
 H          1.4474610798       -2.8275871497        0.5008128299
 C          1.9422006701       -4.1164162795       -1.1547491801
 H          1.1352578102       -4.8177449695       -1.3770829704
 H          2.8816445202       -4.6058109295       -1.4154880700
 C          1.7340387703       -2.9004569894       -2.0598954800
 H          1.5487349305       -3.2620062093       -3.0750786301
 H          0.8394531202       -2.3561277994       -1.7418263101
 C          2.9085812903       -1.9155793094       -2.1326415297
 H          3.8286956604       -2.4576155794       -2.3605918796
 H          2.7055483505       -1.2186076693       -2.9508727497
 H          3.1592893095       -3.5391252398        2.0692637302
 H          3.6996166197       -4.8294285297        0.9875659202
 H          4.6259819500       -3.2436423495       -0.5829204595
 H          5.1744254397       -2.7779890097        1.0392244207
 O          3.8593919896       -0.7257940798        1.3149765606
 C          3.3053945296        0.5432414302        1.3805440307
 O          3.4583838794        1.1158857601        2.4794469507
 H          0.4053098396        0.7189175302        1.5656723701
 C         -0.1456998303        1.3300502803        0.8592272701
 C          0.5360409398        2.2983391003        0.1314151303
 C         -0.1817656900        3.0756780404       -0.7666855898
 C         -1.5392825700        2.8674205704       -0.9434710701
 C         -2.2084135901        1.8899333304       -0.2304865003
 C         -1.5017098803        1.1148738003        0.6801015198
 N         -2.1766405504        0.1136481602        1.4114905495
 S         -2.8404847802       -1.1333543997        0.4929188193
 O         -2.9439425304       -2.2575968298        1.3986801391
 O         -2.0907922800       -1.3548290596       -0.7219635706
 C         -4.4737431101       -0.5363928897        0.1137692590
 C         -5.3104805204       -0.2249558598        1.1678508689
 C         -6.5835057503        0.2484234902        0.8934398787
 C         -6.9961133700        0.3991720704       -0.4223717914
 C         -6.1451159098        0.0784496505       -1.4689902013
 C         -4.8695042899       -0.3945354295       -1.2015174211
 H         -4.1692629697       -0.6484291595       -1.9813282110
 H         -6.4673713196        0.1965607806       -2.4910482513
 H         -7.9869203700        0.7693297604       -0.6335027116
 H         -7.2480947605        0.4992401901        1.7043886586
 H         -4.9498123606       -0.3596758999        2.1738791289
 H         -1.6083972005       -0.2840434399        2.1468702296
 H         -3.2631924501        1.7199963204       -0.3724196305
 H         -2.0830277298        3.4730557905       -1.6522256801
 H          0.3241713101        3.8344927205       -1.3403738796
 C          2.0248481898        2.4222862003        0.3510825606
 H          2.1929618496        2.7633359302        1.3831588507
 C          2.7046635800        3.3846660604       -0.5989920892
 C          2.7204316899        4.8525153304       -0.2980165490
 C          3.9773343599        4.0472289804       -0.1682482588
 H          4.7592772900        4.1856713705       -0.8996377087
 H          4.3429560397        3.8203314703        0.8228926112
 H          2.2349453597        5.1819960203        0.6080875309
 H          2.6426465701        5.5483997505       -1.1195326089
 H          2.6284262502        3.0711871606       -1.6336020792
 O          1.9069579503        0.7066369406       -1.9562172296
