  62
        -98.93726744
 C          1.3113892988        1.4431005303        0.6620465514
 C          2.0658421712        0.9325152824       -0.4226167495
 C          2.9771649938       -0.1853371489       -0.1171773862
 C          3.0466951506       -0.6663639246        1.1347187825
 C          3.9305887470       -1.7615640060        1.6769871459
 C          4.0827981292       -3.0356995477        0.8355644023
 C          2.8411076065       -3.4411364852        0.0276328049
 H          2.6258684568       -4.4955345079        0.2135100343
 H          1.9643322055       -2.8754390509        0.3509702012
 C          3.0232755317       -3.2608050058       -1.4811257263
 H          4.0155327946       -3.6203672839       -1.7647124999
 H          2.2859468801       -3.8826794717       -1.9948680961
 C          2.8391493143       -1.8326694122       -1.9902746291
 H          1.7901421683       -1.5423136305       -1.8762087942
 H          3.0611992379       -1.8230001508       -3.0604248853
 C          3.7042244064       -0.7678002177       -1.2940895437
 H          4.6745264265       -1.1703481973       -1.0129931804
 H          3.8566909190        0.0559966642       -1.9966217707
 H          4.9255614807       -2.9244177705        0.1543090595
 H          4.3422031706       -3.8390697244        1.5274388483
 H          4.9218465302       -1.3372783908        1.8634656309
 H          3.5007702153       -2.0166527794        2.6487661661
 O          2.2938058614       -0.1528434867        2.1486319571
 C          1.3832942662        0.8668981274        1.9303306901
 O          0.7019517953        1.1652839568        2.9331737186
 H         -0.6532495384        0.0963400876       -0.0754910500
 C         -1.0168709247        0.8011596824       -0.8059186612
 C         -0.6230776805        2.1295728985       -0.7152756186
 C         -1.0688692290        3.0169472345       -1.6851543226
 C         -1.8738617721        2.5691450717       -2.7197703644
 C         -2.2531215192        1.2424492399       -2.8105123080
 C         -1.8074037027        0.3451282760       -1.8452674026
 N         -2.1305618148       -1.0150636159       -1.9109052691
 S         -2.0923803822       -2.0040597330       -0.5724784418
 O         -0.7409394150       -2.1929757631       -0.1081784263
 O         -2.7851561098       -3.1992613183       -1.0048813739
 C         -3.0770010516       -1.1661539358        0.6570936944
 C         -2.5007786210       -0.6685721847        1.8074418822
 C         -3.2972306169        0.0049031566        2.7206956444
 C         -4.6509605207        0.1652943986        2.4713645264
 C         -5.2190273007       -0.3498413593        1.3155669622
 C         -4.4265046892       -1.0192065624        0.3983185116
 H         -4.8332177691       -1.4439422007       -0.5048425052
 H         -6.2735598454       -0.2288970462        1.1273149507
 H         -5.2651531620        0.6924856911        3.1841063660
 H         -2.8454087422        0.4045091552        3.6148867087
 H         -1.4436220000       -0.8033085819        1.9801959354
 H         -2.8228984152       -1.2814338845       -2.5929299655
 H         -2.8690698627        0.8977261424       -3.6265442129
 H         -2.2083537053        3.2667498868       -3.4726532890
 H         -0.7710671176        4.0518698916       -1.6478020312
 C          0.2478242899        2.5094102769        0.4599657297
 H         -0.3819913879        2.4464156155        1.3641270622
 C          0.7697541212        3.9376120976        0.3995747681
 C          2.1324252139        4.2905307774        0.9151104667
 C          1.8473525885        4.3549855765       -0.5538198421
 H          1.7728363106        5.3278110370       -1.0176967444
 H          2.2636546168        3.5922650547       -1.1920890651
 H          2.7540168945        3.4850655396        1.2796241625
 H          2.2497649903        5.2144474369        1.4618141108
 H         -0.0127540876        4.6641791353        0.5953822378
 O          1.9947656130        1.3784613139       -1.5963563223
