  62
        -98.93807316
 C         -2.1021170924       -1.0239250099       -0.4178946629
 C         -3.1688659274       -1.1526895966        0.5058322686
 C         -4.4162442357       -0.4447582976        0.1770823363
 C         -4.4821511021        0.2814272212       -0.9518629114
 C         -5.6533340711        1.0544151621       -1.5048047498
 C         -6.4851324398        1.8837565163       -0.5170997249
 C         -5.6930376501        2.4881025028        0.6515725265
 H         -4.6213223609        2.3895965345        0.4692229921
 H         -5.9144439894        3.5551424732        0.7159728578
 C         -6.0419801056        1.8539135217        2.0002426502
 H         -5.7482786336        2.5411109225        2.7973938459
 H         -7.1255739869        1.7299126546        2.0588163553
 C         -5.3683559213        0.5128372262        2.2882613497
 H         -4.2989050762        0.6650914016        2.4573274664
 H         -5.7866411556        0.1194044105        3.2178435494
 C         -5.5190909448       -0.5530709470        1.1905677061
 H         -5.4038437402       -1.5346242263        1.6582236540
 H         -6.5003322117       -0.5037058474        0.7249857374
 H         -7.2941417298        1.2730011828       -0.1188512837
 H         -6.9514267656        2.6846641192       -1.0934290588
 H         -5.2249299313        1.7123220764       -2.2649180303
 H         -6.3109596323        0.3502438958       -2.0230138394
 O         -3.4291832457        0.3839792606       -1.8103166997
 C         -2.2188291344       -0.2487256219       -1.5703011782
 O         -1.3609073867       -0.0446891926       -2.4507824372
 H          1.0867128304       -0.4713064262       -1.6554332649
 C          1.1039982327       -0.1342888088       -0.6312533178
 C          0.2218150588       -0.6791863446        0.2892083873
 C          0.2483174956       -0.2068152203        1.5986884185
 C          1.1255631101        0.7942526562        1.9718136322
 C          1.9932005809        1.3482729507        1.0468380855
 C          1.9747010503        0.8831979336       -0.2615408386
 N          2.8455832722        1.4447342965       -1.2077543744
 S          4.4317369401        1.7328359809       -0.7720238504
 O          4.5160924808        2.9563765118       -0.0131205703
 O          5.1768603132        1.7070672318       -2.0110330676
 C          4.8893890835        0.3514461890        0.2606959538
 C          4.8485878768       -0.9135952522       -0.2915973840
 C          5.1712066388       -2.0020927313        0.5019542186
 C          5.5252417396       -1.8083046019        1.8286247305
 C          5.5652668697       -0.5318878893        2.3672048171
 C          5.2431449733        0.5607278576        1.5778695691
 H          5.2610330164        1.5697967438        1.9563321947
 H          5.8428126263       -0.3839999574        3.3984112210
 H          5.7723600994       -2.6582357510        2.4449572863
 H          5.1423911491       -2.9959102771        0.0849035382
 H          4.5746224263       -1.0289577604       -1.3279534853
 H          2.7678098680        1.0452863858       -2.1306472263
 H          2.6691255160        2.1444670609        1.3133880833
 H          1.1323672239        1.1516514017        2.9902730985
 H         -0.4411080281       -0.6266809238        2.3176324698
 C         -0.7932806265       -1.7268566762       -0.0953878798
 H         -1.0058326979       -2.3352034602        0.7938563610
 C         -0.3387602143       -2.6419865026       -1.2125576974
 C          0.7211046930       -3.6643053886       -0.9339175997
 C         -0.6965589956       -4.0957488606       -1.1565404680
 H         -0.9457191183       -4.5996891862       -2.0784808844
 H         -1.2673656000       -4.4377169451       -0.3057406409
 H          1.4482174906       -3.8763792922       -1.7026809386
 H          1.1124625630       -3.7118952438        0.0708407915
 H         -0.3480305293       -2.1713103160       -2.1878193650
 O         -3.0868167227       -1.8414737114        1.5569956938
