  62
        -98.94063139
 C          1.7462011063       -0.3855285424       -0.4215051130
 C          2.9185200664       -0.5560102025       -1.2013352899
 C          4.1686643018       -0.7457652606       -0.4580616522
 C          4.1509703311       -0.7374325735        0.8869866484
 C          5.3390289726       -0.9333526649        1.7893262745
 C          6.1535322292        0.3443424703        2.0344277965
 C          6.9922388387        0.8199344594        0.8473569232
 H          7.6731592831        1.5863927350        1.2228690059
 H          7.6027415235       -0.0058602785        0.4806871084
 C          6.1746104146        1.4113776847       -0.3095115996
 H          6.6361147311        2.3437614322       -0.6427880494
 H          5.1712522105        1.6604589514        0.0440103056
 C          6.0568429751        0.5019376281       -1.5326916654
 H          7.0441567619        0.3537355502       -1.9757712237
 H          5.4275835305        1.0024405919       -2.2732168637
 C          5.4410142877       -0.8725061161       -1.2402953729
 H          5.1998471902       -1.3492058213       -2.1936448854
 H          6.1552919011       -1.4989672788       -0.7063759088
 H          6.8276363249        0.1452911753        2.8707200203
 H          5.4708535081        1.1404876181        2.3404617379
 H          5.9884668905       -1.7066610742        1.3780546550
 H          4.9474481878       -1.2805388404        2.7478474612
 O          3.0088407896       -0.5577349126        1.6000165541
 C          1.7843207150       -0.3540687453        0.9735348401
 O          0.8421867267       -0.1655089809        1.7642744957
 O          2.9191149120       -0.5453717951       -2.4612198451
 C          0.4398428170       -0.1589117002       -1.1600292632
 C         -0.3008678366        1.0168248000       -0.5743383587
 C          0.3574946427        2.2405270058       -0.4714399079
 C         -0.2752489048        3.3418045847        0.0686735233
 C         -1.5913202799        3.2573193261        0.4904703229
 C         -2.2620927850        2.0477570611        0.3781028522
 C         -1.6142451002        0.9358702718       -0.1427841638
 H         -2.1478430376        0.0022669824       -0.1920272735
 N         -3.5991233031        1.9166542941        0.7875435190
 S         -4.6689800767        1.1347219756       -0.2367008662
 O         -4.3102820717        1.3294337535       -1.6227095399
 O         -5.9753945823        1.6208039978        0.1546552903
 C         -4.5517067170       -0.5894076327        0.1888330709
 C         -4.4659554942       -1.5282267298       -0.8201648729
 C         -4.4212305150       -2.8721605469       -0.4841590127
 C         -4.4647220214       -3.2512435515        0.8489868814
 C         -4.5511306915       -2.2955391034        1.8501652616
 C         -4.5984540502       -0.9505100558        1.5205908198
 H         -4.6657279067       -0.1809230943        2.2712002798
 H         -4.5805315070       -2.5949091819        2.8854130187
 H         -4.4273596619       -4.2976117467        1.1085342583
 H         -4.3505542374       -3.6163553249       -1.2615852961
 H         -4.4261037038       -1.1877269735       -1.8427362310
 H         -4.0067389428        2.7560547940        1.1736567962
 H         -2.0910079469        4.1192451249        0.9065920391
 H          0.2545000778        4.2789880003        0.1538554208
 H          1.3824137791        2.3117192880       -0.8108881409
 H          0.7511269317        0.1196778809       -2.1817704568
 C         -0.4245997857       -1.4035056864       -1.2980395417
 C          0.1770807012       -2.7755044239       -1.2601844121
 C         -0.7030911376       -2.3129501738       -0.1400077186
 H         -1.6910850057       -2.7405758349       -0.0516784407
 H         -0.2483409413       -2.0647124705        0.8057072947
 H         -0.2040235082       -3.5195605000       -1.9432228658
 H          1.2394108460       -2.8520533412       -1.0790561861
 H         -1.2349173701       -1.2551858207       -2.0062986503
