  62
        -98.94290666
 C          2.0335429375        0.9373030269        0.4558878343
 C          2.7067133283       -0.1198933405        1.1232867735
 C          4.1404348619       -0.2657774149        0.8440619397
 C          4.7349110639        0.6006316272        0.0040562898
 C          6.1755714514        0.5439738440       -0.4119593871
 C          6.3534089903       -0.2959550317       -1.6844749001
 C          5.6613688131       -1.6578723435       -1.6271725647
 H          4.5798261835       -1.5079483367       -1.5891270580
 H          5.8808850525       -2.1742582673       -2.5641493372
 C          6.0909857112       -2.5387872944       -0.4456603082
 H          6.2656353863       -3.5532802380       -0.8101558561
 H          7.0339121505       -2.1753400803       -0.0355491843
 C          5.0572519380       -2.6417043016        0.6775430477
 H          4.0855709850       -2.9162005979        0.2585614137
 H          5.3630186539       -3.4490830708        1.3484916894
 C          4.8738920087       -1.3817823413        1.5330345611
 H          5.8453212099       -1.0384572715        1.8950733946
 H          4.2613860002       -1.6538052366        2.3978469010
 H          5.9407578640        0.2619852259       -2.5280638710
 H          7.4217177086       -0.4358250728       -1.8591469420
 H          6.5170805334        1.5616766005       -0.6080787594
 H          6.7658254076        0.1229761684        0.3996593626
 O          4.0663335261        1.6105067127       -0.6028369002
 C          2.7052269793        1.8030870289       -0.4082275082
 O          2.2466589288        2.7640186906       -1.0554011775
 O          2.1318767643       -0.9033397212        1.9272883044
 C          0.5509602785        1.0883531137        0.7508272258
 C         -0.3076751812        0.4669957868       -0.3252139601
 C         -0.2544178532        0.9047873171       -1.6452362134
 C         -1.0562425793        0.3216507325       -2.6087676974
 C         -1.9409763633       -0.6891845442       -2.2740962269
 C         -2.0063615133       -1.1297957465       -0.9584535352
 C         -1.1844481531       -0.5568222652        0.0034641309
 H         -1.2385775881       -0.9204197170        1.0186149973
 N         -2.9015559249       -2.1496631642       -0.5807835781
 S         -4.0152568982       -1.8206346579        0.6258700606
 O         -3.3351306000       -1.5794026415        1.8715610379
 O         -4.9367758774       -2.9338493480        0.5973786073
 C         -4.8383673836       -0.3381510366        0.0705615451
 C         -6.0189666671       -0.4566753078       -0.6367575237
 C         -6.6238175234        0.6881938084       -1.1296877439
 C         -6.0335815442        1.9251999447       -0.9188464182
 C         -4.8464064993        2.0269447782       -0.2100506459
 C         -4.2400418171        0.8864786154        0.2923556150
 H         -3.3183439550        0.9322533372        0.8487565808
 H         -4.3850058005        2.9876644834       -0.0473083222
 H         -6.5010260577        2.8160851918       -1.3075732651
 H         -7.5489044093        0.6125574756       -1.6781301713
 H         -6.4432280385       -1.4382165845       -0.7739431659
 H         -3.3709399022       -2.5870094764       -1.3616491268
 H         -2.5713228429       -1.1387375197       -3.0265191501
 H         -0.9990234340        0.6648411052       -3.6305573376
 H          0.4293451019        1.6971534185       -1.9077789090
 H          0.3869036866        0.5149590857        1.6739358999
 C          0.1256577888        2.5224100327        1.0011969926
 C         -1.0591527566        2.7843675613        1.8799042017
 C          0.3210113495        3.1148663917        2.3627018436
 H          0.6113033456        4.1520517304        2.4356570941
 H          0.7593680048        2.4848587436        3.1233623132
 H         -1.7213464932        3.5975438483        1.6257406279
 H         -1.5541307532        1.9325570730        2.3239462939
 H          0.2800155634        3.1730680343        0.1505678452
