  62
        -98.94053630
 C          1.5990851999        0.6173707324        0.7419972995
 C          2.9584879407        0.7601053424        1.1246038411
 C          3.9491072382        0.7395104224        0.0408578931
 C          3.5311728764        0.5727347726       -1.2266122787
 C          4.4330616222        0.4748430617       -2.4220865901
 C          4.8102090417       -0.9841372603       -2.7141638959
 C          5.3041775858       -1.7515444796       -1.4876740261
 H          4.4800690339       -1.8565531351       -0.7779273653
 H          5.5703347749       -2.7575342282       -1.8195511509
 C          6.5063485335       -1.1114525549       -0.7791678769
 H          7.2327732145       -1.8934626295       -0.5483006301
 H          6.9957046644       -0.4025001730       -1.4479856937
 C          6.1688643169       -0.4137567515        0.5398677738
 H          5.5948302225       -1.0920388646        1.1762831021
 H          7.1063504299       -0.1947249437        1.0578365747
 C          5.3942135434        0.9046509861        0.4189324731
 H          5.3948231047        1.3808337812        1.4037604439
 H          5.9032937877        1.5673598087       -0.2838262773
 H          3.9291515227       -1.4976626610       -3.1066598250
 H          5.5812223895       -0.9937655306       -3.4868242679
 H          3.9058291614        0.8837695917       -3.2857212318
 H          5.3302704737        1.0643032563       -2.2432510028
 O          2.2247486414        0.4245511156       -1.5573289150
 C          1.2248394824        0.4247292870       -0.5893300303
 O          0.0834115415        0.2589770742       -1.0539912607
 O          3.3277869370        0.8964442230        2.3215279990
 C          0.5646104960        0.5979650155        1.8542727138
 C         -0.2686904368       -0.6547149290        1.7629114089
 C          0.3002588649       -1.8585455575        2.1709234185
 C         -0.4206157031       -3.0354192184        2.1236530858
 C         -1.7234358966       -3.0330729032        1.6580547517
 C         -2.2965538611       -1.8420657872        1.2313515191
 C         -1.5727861219       -0.6580438832        1.2905802054
 H         -2.0256869226        0.2586428892        0.9504523463
 N         -3.6268692410       -1.8146947703        0.7638275953
 S         -3.8815613191       -1.3798286843       -0.8445784621
 O         -5.1716702132       -1.9612404809       -1.1629063000
 O         -2.7834605195       -1.7983393284       -1.6832056566
 C         -4.0577918036        0.3890477209       -0.8245100673
 C         -5.2149056294        0.9095127393       -0.2771598070
 C         -5.3994473658        2.2820713894       -0.2825236617
 C         -4.4326321144        3.1043964539       -0.8422592537
 C         -3.2777837948        2.5641460074       -1.3865161140
 C         -3.0800393576        1.1911539108       -1.3763899284
 H         -2.1803565579        0.7368728919       -1.7612014602
 H         -2.5234774086        3.2036550743       -1.8171875014
 H         -4.5778556067        4.1733922677       -0.8542445832
 H         -6.2944492146        2.7063779821        0.1431702945
 H         -5.9470467751        0.2310342251        0.1280129669
 H         -4.1257549606       -2.6764179312        0.9423605955
 H         -2.2936979503       -3.9495723812        1.6173824026
 H          0.0321965526       -3.9601129828        2.4487578445
 H          1.3205766411       -1.8573072204        2.5301574901
 H          1.1687657103        0.5247528634        2.7739950585
 C         -0.2656891209        1.8639103793        1.9943728829
 C          0.3805398347        3.2082413541        1.8409217045
 C         -0.6392977052        2.7477312052        0.8452883161
 H         -1.6159227318        3.2088467718        0.8607439533
 H         -0.3079510387        2.4637893600       -0.1401613207
 H          0.1124062482        3.9932476542        2.5315506060
 H          1.4174922384        3.2263061966        1.5376928155
 H         -0.9995957224        1.7702905898        2.7892539954
