  62
        -98.93555570
 C          1.6990865192        1.1346141963        0.6152671130
 C          1.9445818130       -0.2510196252        0.7889469988
 C          3.3111152192       -0.7405984996        0.5264682529
 C          4.2496396498        0.1461901821        0.1472667036
 C          5.6935401811       -0.1070273862       -0.1972369731
 C          5.8711685917       -0.7404237594       -1.5860536087
 C          4.9047807120       -1.8794682677       -1.8991789272
 H          3.8801806288       -1.5116637519       -1.8195752643
 H          5.0639870602       -2.1723071193       -2.9403748591
 C          5.0668120346       -3.1264395617       -1.0330445376
 H          4.3902590919       -3.8868004095       -1.4313181522
 H          6.0867506406       -3.5036901089       -1.1357838110
 C          4.7593550197       -2.9527554606        0.4561577256
 H          4.6668919605       -3.9538234354        0.8873063800
 H          5.5833001197       -2.4696118664        0.9744540713
 C          3.4519887834       -2.2261524463        0.7558368063
 H          2.6398987969       -2.6981309053        0.1912949596
 H          3.1980712849       -2.3848399018        1.8106840366
 H          5.7197962309        0.0404336287       -2.3354330874
 H          6.8991099649       -1.0965713581       -1.6734962629
 H          6.1908738284        0.8654794161       -0.1926853047
 H          6.1586063248       -0.7195047515        0.5695506877
 O          3.9684430004        1.4692001910       -0.0144794354
 C          2.7086855315        2.0001895162        0.1967179149
 O          2.6452233196        3.2269523985       -0.0196688708
 O          1.0511970395       -1.0606975414        1.1569392609
 C          0.2868082854        1.6116861599        0.9012975940
 C         -0.5335173870        1.7239004434       -0.3614317059
 C         -0.2061800400        2.6264531973       -1.3678182214
 C         -0.9958231010        2.7237658771       -2.4987253274
 C         -2.1303060731        1.9431968305       -2.6389974994
 C         -2.4632665797        1.0354358838       -1.6406662658
 C         -1.6558335972        0.9240615962       -0.5174121719
 H         -1.9087875907        0.2075487463        0.2486943095
 N         -3.5941801286        0.2180086877       -1.7601447103
 S         -4.4902258350       -0.2036968717       -0.4121041165
 O         -5.7824901463       -0.5787022085       -0.9452614277
 O         -4.4931766933        0.8481797242        0.5773632697
 C         -3.6831883726       -1.6569600834        0.2223839875
 C         -3.3489035656       -1.7273143018        1.5597915454
 C         -2.7364317993       -2.8741553586        2.0389792724
 C         -2.4720952922       -3.9259786437        1.1762054376
 C         -2.8178799009       -3.8415823847       -0.1639661577
 C         -3.4311029703       -2.6979697013       -0.6486790403
 H         -3.7158819357       -2.5964103636       -1.6826756394
 H         -2.6085156394       -4.6621681578       -0.8313083193
 H         -1.9905574671       -4.8151325342        1.5514807023
 H         -2.4626353356       -2.9397042402        3.0798164035
 H         -3.5656693400       -0.8831606230        2.1959898666
 H         -4.1745794307        0.4005424057       -2.5654043253
 H         -2.7529192671        2.0328951683       -3.5163244829
 H         -0.7324249387        3.4254637043       -3.2759328980
 H          0.6734721276        3.2417428981       -1.2564372854
 H         -0.1640450540        0.8177127863        1.5124386697
 C          0.2194751406        2.9100364000        1.6826165314
 C         -1.0790941302        3.2905201146        2.3268360763
 C          0.0824926368        2.8656662570        3.1733156106
 H          0.5942504741        3.6139799140        3.7597731487
 H          0.0420925706        1.8941881393        3.6441237236
 H         -1.3644656245        4.3314433837        2.3314942461
 H         -1.9123097651        2.6115059178        2.2158136650
 H          0.8227059774        3.7019820557        1.2587488233
