  62
        -98.94292697
 C         -1.4769499504       -1.4947188596        0.1531644999
 C         -2.5188374200       -1.0056169593        0.9807105003
 C         -3.3145826497        0.1029209411        0.4372899807
 C         -2.9922300498        0.6143297212       -0.7647836593
 C         -3.7229350895        1.7401469016       -1.4376267789
 C         -3.1172681889        3.1065895013       -1.0906398388
 C         -2.8599799684        3.3062755109        0.4024044712
 H         -2.0991203786        2.5948470405        0.7321563609
 H         -2.4437619680        4.3077832207        0.5321205613
 C         -4.1088453383        3.1603938512        1.2832853715
 H         -5.0066780084        3.2588744117        0.6718313217
 H         -4.1218407178        3.9750421411        2.0106041216
 C         -4.1809409786        1.8551149411        2.0777800313
 H         -3.2453191085        1.7040934906        2.6224807410
 H         -4.9773078783        1.9539323013        2.8204381515
 C         -4.4735769493        0.5905167714        1.2603545211
 H         -4.7016634194       -0.2148279587        1.9650221710
 H         -5.3521524594        0.7543399918        0.6325447513
 H         -3.7921266887        3.8848221916       -1.4517632685
 H         -2.1682307290        3.2064230110       -1.6191169090
 H         -3.6626352398        1.5893315818       -2.5167615989
 H         -4.7689572894        1.7097047419       -1.1374010986
 O         -1.9382967101        0.1729781809       -1.4944290496
 C         -1.1512533504       -0.8896513295       -1.0626581100
 O         -0.2246256607       -1.1767720697       -1.8387850103
 H          0.7059775504       -0.7122122808        1.7700699195
 C          1.3496984200       -1.3319810909        1.1570330093
 C          0.8016638394       -2.4237794105        0.4935442492
 C          1.6354321789       -3.2039032607       -0.2956308412
 C          2.9791788590       -2.8936773212       -0.4162825714
 C          3.5204388196       -1.8076186616        0.2459245386
 C          2.6936364201       -1.0178595114        1.0351371390
 N          3.2349357807        0.0983013983        1.7093858991
 S          3.9078293309        1.3039940182        0.7595172191
 O          5.0907283205        0.7901649379        0.1183521987
 O          4.1001055115        2.4258468780        1.6507243293
 C          2.6619779007        1.6923140989       -0.4538448305
 C          2.5798891002        0.9404004792       -1.6083630606
 C          1.5672765700        1.2133419397       -2.5134256303
 C          0.6622447605        2.2292140600       -2.2504383599
 C          0.7599029511        2.9775456398       -1.0873678798
 C          1.7643412112        2.7032019192       -0.1743095701
 H          1.8771145616        3.2625373290        0.7409610800
 H          0.0570492914        3.7704327200       -0.8849235494
 H         -0.1268422196        2.4310983205       -2.9580482396
 H          1.4775742296        0.6219829799       -3.4094906004
 H          3.3012835898        0.1592764089       -1.7826816309
 H          2.5861498810        0.5181387384        2.3605499493
 H          4.5616872396       -1.5452857519        0.1503505884
 H          3.6143471986       -3.5060108513       -1.0383983317
 H          1.2293625484       -4.0417440905       -0.8376128812
 C         -0.6742440707       -2.6795275900        0.6607899495
 H         -0.8903673304       -2.7125179001        1.7420924896
 C         -1.1199654113       -4.0193659097        0.0935711294
 C         -2.5412159715       -4.2467325091       -0.3241123103
 C         -1.4546966418       -4.2093659193       -1.3544279906
 H         -1.1682725623       -5.1367806693       -1.8286384808
 H         -1.3856763416       -3.3491171792       -2.0012677404
 H         -2.9988176319       -5.1961891190       -0.0897475704
 H         -3.2212069412       -3.4092156488       -0.2659562700
 H         -0.6301243215       -4.8500680600        0.5926237391
 O         -2.7767530799       -1.4808488195        2.1197650703
