  62
        -98.94089087
 C          1.6631468102        1.7559873803        0.4246594290
 C          2.1460197403        1.2197677103       -0.7947621110
 C          3.0607148105        0.0742740105       -0.6675735809
 C          3.3538426605       -0.4269887595        0.5448906091
 C          4.2479168406       -1.6030697794        0.8287482991
 C          3.5431123808       -2.9596411395        0.6903980690
 C          3.2556103209       -3.3993999795       -0.7459202310
 H          4.1700764109       -3.3295216894       -1.3358615209
 H          2.9747791310       -4.4538157796       -0.7095430810
 C          2.1332454608       -2.6133652996       -1.4387184210
 H          1.5383237607       -2.0874753297       -0.6880862610
 H          1.4632338109       -3.3082562497       -1.9501550510
 C          2.6167992407       -1.6049303596       -2.4804441310
 H          1.7447376207       -1.0883399597       -2.8897852710
 H          3.1092544908       -2.1307746895       -3.3015516810
 C          3.5803885306       -0.5453800595       -1.9306523109
 H          4.5631192406       -0.9843432494       -1.7601114309
 H          3.6764309905        0.2482516805       -2.6759461109
 H          4.1870655708       -3.7100998694        1.1543282791
 H          2.6087972407       -2.9232615696        1.2544306890
 H          5.1181925406       -1.5724365693        0.1726878391
 H          4.5870139006       -1.4935619394        1.8609517991
 O          2.8553560004        0.1047986604        1.6920860290
 C          2.0053224703        1.1959150503        1.6595307990
 O          1.6240640402        1.5795058203        2.7830636290
 O          1.8414155303        1.6480981803       -1.9377715110
 C          0.7029111801        2.9323473402        0.5021040190
 C         -0.7220251298        2.4401268100        0.4896256890
 C         -1.6494259199        2.8983490899        1.4167373089
 C         -2.9500816199        2.4237385897        1.4052527389
 C         -3.3490908697        1.4814385897        0.4746213089
 C         -2.4250091597        1.0068079198       -0.4488698611
 C         -1.1245784297        1.4903803700       -0.4399353611
 H         -0.4132282896        1.1301976601       -1.1694310610
 N         -2.8143876995        0.0411800098       -1.3981544411
 S         -3.4632677794       -1.4025164403       -0.8560565012
 O         -3.5055208792       -2.2607051503       -2.0166570812
 O         -4.7231566594       -1.1353156104       -0.2105631712
 C         -2.2977660993       -2.0448030002        0.3323169489
 C         -1.3827113192       -2.9925562501       -0.0796788911
 C         -0.4589808292       -3.4763528000        0.8329183289
 C         -0.4546499993       -2.9913631700        2.1316625389
 C         -1.3757155294       -2.0343238601        2.5289027289
 C         -2.3116211294       -1.5581058102        1.6248118389
 H         -3.0502114895       -0.8257871603        1.9059083189
 H         -1.3659968595       -1.6550529401        3.5381992789
 H          0.2685694607       -3.3615858299        2.8417625589
 H          0.2544928609       -4.2252107599        0.5284179789
 H         -1.4202851391       -3.3418064901       -1.0990224011
 H         -2.1007283795       -0.1450404801       -2.0884332811
 H         -4.3551886797        1.0944694696        0.4574827588
 H         -3.6615512999        2.7905671897        2.1294164289
 H         -1.3419352200        3.6203187599        2.1587751990
 H          0.8826866400        3.3907888602        1.4874059490
 C          0.9687776100        4.0015058702       -0.5484410510
 C          0.0675645000        4.2564339101       -1.7153021310
 C          0.1214711899        5.2388714501       -0.5866037510
 H          0.6030500598        6.1912271102       -0.7485901510
 H         -0.7287525402        5.2800738900        0.0774773290
 H          0.5296571400        4.5138827002       -2.6560741810
 H         -0.8180999499        3.6495139800       -1.8212578710
 H          2.0306753400        4.1352985903       -0.7266720809
