  62
        -98.94453784
 C         -2.6195181746       -1.2170345662        0.1440623393
 C         -2.6477922125       -0.2778877601       -0.9151727035
 C         -3.4271300885        0.9454439915       -0.6706793999
 C         -4.0622612430        1.1081964663        0.5033011711
 C         -4.8309423653        2.3324794455        0.9051003292
 C         -3.9306725788        3.3359915725        1.6393957470
 C         -2.6133445578        3.6299141037        0.9206963411
 H         -1.9939170011        2.7291511169        0.9167027430
 H         -2.0792357245        4.3769353053        1.5121827183
 C         -2.7737938447        4.1395612115       -0.5183827900
 H         -2.0950078904        4.9819541876       -0.6676731379
 H         -3.7889358411        4.5084424052       -0.6703936705
 C         -2.4423188628        3.1075287135       -1.5980508890
 H         -1.4607876076        2.6693215285       -1.3936581475
 H         -2.3716765365        3.6296378158       -2.5563517831
 C         -3.4591695336        1.9712868119       -1.7685980290
 H         -3.2074820718        1.4361488930       -2.6888909856
 H         -4.4618093903        2.3892828186       -1.8775617865
 H         -3.6965889387        2.9336317476        2.6276080901
 H         -4.4872748895        4.2653015926        1.7731521975
 H         -5.2597502216        2.7943584538        0.0180823129
 H         -5.6384561425        2.0273175215        1.5726272878
 O         -4.0328058284        0.1770404810        1.4892591929
 C         -3.3034429331       -0.9887655452        1.3434696733
 O         -3.3475492283       -1.7436399530        2.3350005370
 H         -0.0637727625       -1.1979517535       -1.4993897814
 C          0.3907794979       -1.5055474541       -0.5693849616
 C         -0.3660231649       -2.2062064673        0.3592601164
 C          0.2257102961       -2.5600834510        1.5663987356
 C          1.5399710886       -2.2187268635        1.8338986291
 C          2.2865789260       -1.5100501234        0.9093877865
 C          1.7003745223       -1.1434773715       -0.2946618356
 N          2.4428122084       -0.3900737291       -1.2282890172
 S          2.9857450212        1.1052520621       -0.6766367008
 O          2.1295000533        1.6275774333        0.3645639597
 O          3.1354442900        1.9244398991       -1.8597522319
 C          4.5994525622        0.7413049837       -0.0178946981
 C          4.8947910973        1.0472765893        1.2959564265
 C          6.1596226051        0.7559115925        1.7833796947
 C          7.1009424309        0.1680279033        0.9523081983
 C          6.7889578102       -0.1308166953       -0.3658801800
 C          5.5269570177        0.1584736018       -0.8594474162
 H          5.2433542928       -0.0541793989       -1.8766451361
 H          7.5237623005       -0.5882067011       -1.0086560473
 H          8.0836262667       -0.0588394832        1.3345510353
 H          6.4038650023        0.9875633921        2.8077295369
 H          4.1279178918        1.4979248600        1.9058114944
 H          1.9492997587       -0.2652756828       -2.1021281712
 H          3.3067625594       -1.2300240021        1.1163537182
 H          1.9856523681       -2.5009375630        2.7755817975
 H         -0.3617366713       -3.0862003879        2.3050867175
 C         -1.8203738484       -2.5126337622        0.0915366849
 H         -2.1933639849       -3.1233453772        0.9241782581
 C         -2.0148102216       -3.2890864374       -1.1952556849
 C         -1.6800186176       -4.7492241958       -1.2154699264
 C         -3.1106691087       -4.3070528249       -1.2748103908
 H         -3.6475902251       -4.4127392173       -2.2055125497
 H         -3.7262165261       -4.4482899984       -0.3981608815
 H         -1.3252330478       -5.1927162551       -0.2974477261
 H         -1.2322784663       -5.1623567164       -2.1061505323
 H         -1.8119681867       -2.7117093360       -2.0870996504
 O         -2.0616701148       -0.4267646498       -2.0220899617
