  62
        -98.93914879
 C         -1.5164448974       -0.8506346715       -0.0404406786
 C         -2.7799447613       -1.4814976118       -0.0189186102
 C         -3.9092440132       -0.6664659014        0.4625273413
 C         -3.6787327344        0.5974107468        0.8591119087
 C         -4.6911090348        1.6071415658        1.3248859390
 C         -5.1644974172        2.4807492188        0.1507036889
 C         -6.3425363155        1.9134472662       -0.6402700012
 H         -7.2470434309        1.9764452522       -0.0315889002
 H         -6.4891364616        2.5564407371       -1.5112595466
 C         -6.1761600736        0.4687542918       -1.1191078792
 H         -6.8675436047        0.3096872590       -1.9490376496
 H         -5.1666510601        0.3228245458       -1.5077953943
 C         -6.4695185183       -0.5678924901       -0.0243706538
 H         -7.1798679351       -1.3046132571       -0.4054809779
 H         -6.9595543991       -0.0718735404        0.8133663033
 C         -5.2487619828       -1.3510991066        0.4817043629
 H         -5.4476020530       -1.7021158916        1.5000220132
 H         -5.1102518779       -2.2457010955       -0.1337426976
 H         -4.3129719822        2.6342444976       -0.5169244797
 H         -5.4576509619        3.4590219587        0.5370474596
 H         -4.1829838347        2.2453442414        2.0506490099
 H         -5.5282293962        1.1179398824        1.8138991186
 O         -2.4402138725        1.1621423036        0.8350083630
 C         -1.3304060131        0.4640981348        0.3877131015
 O         -0.2661351974        1.1063395761        0.4222904766
 O         -2.9596467922       -2.6750662382       -0.3863235163
 C         -0.3097566530       -1.6208747363       -0.5423177861
 C          0.7706255889       -1.6389963948        0.5096978290
 C          0.4366473683       -1.9724342640        1.8203218088
 C          1.3952758064       -1.9771663584        2.8140548337
 C          2.7068510211       -1.6402359187        2.5267469760
 C          3.0540296853       -1.3228712076        1.2199073956
 C          2.0912101063       -1.3373029723        0.2191437869
 H          2.3940109365       -1.1120490539       -0.7886328630
 N          4.3763718710       -0.9983876169        0.8926697152
 S          4.7274851130        0.0391058544       -0.3656500473
 O          4.5794601653       -0.6442026878       -1.6266892030
 O          6.0627876307        0.5123693668       -0.0662174211
 C          3.5705940175        1.3916585312       -0.2587084980
 C          2.8273763933        1.7381118704       -1.3674244710
 C          1.9485392393        2.8045409472       -1.2799585828
 C          1.8261751938        3.5009028511       -0.0893076300
 C          2.5816418094        3.1424835921        1.0152775189
 C          3.4646733696        2.0794169180        0.9328522250
 H          4.0683862609        1.7819012597        1.7751066056
 H          2.4786102544        3.6844224199        1.9417454228
 H          1.1320629755        4.3234115625       -0.0204244716
 H          1.3543177757        3.0819359750       -2.1364357794
 H          2.9466927023        1.1645868186       -2.2735234878
 H          5.0001299170       -0.8774004514        1.6761281218
 H          3.4545562126       -1.6289010793        3.3048135184
 H          1.1191481163       -2.2351123184        3.8254649712
 H         -0.5904963814       -2.2217681463        2.0499963481
 H         -0.6591692011       -2.6519059288       -0.7018354627
 C          0.1549061487       -1.0497395349       -1.8658074431
 C          0.8561033193       -1.9197869952       -2.8642239996
 C         -0.5444011017       -1.4555235914       -3.1269619651
 H         -0.7081432481       -0.7092520134       -3.8898864471
 H         -1.3458724340       -2.1747006268       -3.0404981820
 H          1.6631964466       -1.4963670439       -3.4437475036
 H          1.0057865544       -2.9569779483       -2.6044319109
 H          0.4698578673       -0.0152625586       -1.7785036816
