  62
        -98.94008464
 C          2.6280814315        1.1468320430        0.2740600792
 C          2.5761123790        0.3108192192       -0.8691500265
 C          3.4379105804       -0.8820025263       -0.8296445382
 C          4.1978391189       -1.1176539601        0.2542959384
 C          5.0700112876       -2.3235888346        0.4471634768
 C          4.3055782399       -3.4521576008        1.1536339033
 C          2.9377828209       -3.7517239833        0.5394962463
 H          2.5046112234       -4.5823904781        1.1011940892
 H          2.2830988972       -2.8893069690        0.6874322893
 C          2.9756351979       -4.1074901484       -0.9533937496
 H          3.9880085427       -4.3952422546       -1.2391612353
 H          2.3324709456       -4.9736298736       -1.1223813190
 C          2.4824118157       -2.9976479446       -1.8838476634
 H          2.3464962329       -3.4257708498       -2.8804102086
 H          1.5061286333       -2.6405844728       -1.5455496483
 C          3.4126703139       -1.7867418370       -2.0293808268
 H          4.4204097425       -2.1235950935       -2.2803514128
 H          3.0359316144       -1.1778281955       -2.8563097416
 H          4.1568466204       -3.1683881947        2.1983027756
 H          4.9212781070       -4.3530922247        1.1314097627
 H          5.4294111867       -2.6646083177       -0.5216689890
 H          5.9248399158       -2.0360470726        1.0616245827
 O          4.2118976760       -0.2994914055        1.3384573550
 C          3.4134368137        0.8320821233        1.3852284565
 O          3.4839146885        1.4626657951        2.4599206953
 H          0.2198188875        0.4743988661        1.3668458025
 C         -0.3033663200        1.0222876680        0.5907847744
 C          0.3506119558        2.0675704155       -0.0514863245
 C         -0.3319079147        2.7661055312       -1.0375673219
 C         -1.6267505338        2.4124783913       -1.3762623891
 C         -2.2659473738        1.3607957678       -0.7470467203
 C         -1.5947627745        0.6576865602        0.2451979282
 N         -2.2283390678       -0.4266950343        0.8787440639
 S         -3.7648606041       -0.1871743055        1.5120499194
 O         -3.9624009582        1.1863674349        1.9142359293
 O         -3.9049438192       -1.1862523022        2.5493147860
 C         -4.8546115488       -0.5937454328        0.1645608391
 C         -5.8069456283        0.3164989020       -0.2500894747
 C         -6.6513250165       -0.0267993557       -1.2945929231
 C         -6.5295510318       -1.2675257353       -1.9012668480
 C         -5.5692109733       -2.1712080413       -1.4711016523
 C         -4.7227785700       -1.8348238135       -0.4268480063
 H         -3.9657108329       -2.5084826517       -0.0612476088
 H         -5.4770097358       -3.1349031953       -1.9456312891
 H         -7.1868129802       -1.5322017136       -2.7144237202
 H         -7.3983131186        0.6741559134       -1.6308041817
 H         -5.8603099029        1.2715560204        0.2477721999
 H         -1.6416728057       -0.9053441103        1.5466916698
 H         -3.2703101163        1.0774660933       -1.0162738824
 H         -2.1430228505        2.9600820594       -2.1499528329
 H          0.1561462333        3.5734678549       -1.5578523724
 C          1.7591010169        2.3877501924        0.3888135803
 H          1.7244455978        2.6096020076        1.4691933198
 C          2.3381900342        3.6237053380       -0.2833622143
 C          3.8174086613        3.7808283519       -0.4682852369
 C          2.9299576209        3.5864971219       -1.6590084185
 H          2.7601108200        4.4303395399       -2.3117077841
 H          2.9480422172        2.6362398984       -2.1678607901
 H          4.2530911776        4.7544825094       -0.3007630288
 H          4.4509083521        2.9615941278       -0.1598216031
 H          1.7939919805        4.5226722768       -0.0099335481
 O          1.8534573894        0.5337950151       -1.8730197950
