  62
        -98.94413691
 C         -2.2312847349       -0.8149204434        0.4416191999
 C         -2.4851744956       -0.0487908367       -0.7220599889
 C         -3.3644306125        1.1130842138       -0.5368645349
 C         -3.8238831404        1.4173855760        0.6904419457
 C         -4.7093246872        2.5822880938        1.0415106649
 C         -6.2046054106        2.3183951038        0.8166408547
 C         -6.6453272692        2.2789024797       -0.6471510968
 H         -6.2955542357        3.1782733156       -1.1549074658
 H         -7.7367781365        2.3050120478       -0.6530827821
 C         -6.1773586198        1.0355128824       -1.4162852857
 H         -7.0116088774        0.6285684362       -1.9920637497
 H         -5.8712227372        0.2625934935       -0.7074971514
 C         -5.0319240178        1.2896410070       -2.3963811122
 H         -5.3696303556        1.9615301498       -3.1884478989
 H         -4.7574581691        0.3371459437       -2.8565551388
 C         -3.7718510141        1.8856520415       -1.7549387858
 H         -3.9361214682        2.9336801569       -1.5054105405
 H         -2.9542831793        1.8200106117       -2.4769704687
 H         -6.7549340774        3.1176579934        1.3184284607
 H         -6.4698147758        1.3767722784        1.3030127966
 H         -4.4036944361        3.4603758715        0.4718572493
 H         -4.5512822650        2.7840913082        2.1032915553
 O         -3.5058465315        0.6878081166        1.7943879160
 C         -2.7237540880       -0.4522236874        1.6941530707
 O         -2.5291177105       -1.0390868581        2.7795971475
 O         -2.0045476366       -0.3165772555       -1.8527801667
 C         -1.3727768433       -2.0625834615        0.3516643767
 C          0.0147306138       -1.7194793837       -0.1363831325
 C          0.7053400566       -2.4874636109       -1.0646134456
 C          1.9881080648       -2.1370619377       -1.4496136191
 C          2.6095117184       -1.0215219762       -0.9201040320
 C          1.9328723217       -0.2524199396        0.0177809455
 C          0.6506889428       -0.6086748408        0.4047054691
 H          0.1276148716       -0.0103903772        1.1421725481
 N          2.5592578457        0.8870070415        0.5604726816
 S          4.0313381066        0.6472859369        1.3384913317
 O          4.1135670763       -0.6763396551        1.9126426970
 O          4.1599134969        1.7562581270        2.2588821098
 C          5.2378490354        0.8252756843        0.0417035008
 C          6.1242539867       -0.2015259083       -0.2182356074
 C          7.0615035308       -0.0377631440       -1.2264846757
 C          7.0958493975        1.1435105161       -1.9515976805
 C          6.1998882694        2.1660129382       -1.6761688622
 C          5.2610962765        2.0093829408       -0.6690107076
 H          4.5496581852        2.7793289765       -0.4208878662
 H          6.2297468923        3.0830750478       -2.2422234268
 H          7.8252221144        1.2684378312       -2.7362550034
 H          7.7590669349       -0.8310721190       -1.4419124787
 H          6.0551797715       -1.1035775827        0.3683488222
 H          1.9475962433        1.4356475252        1.1481261850
 H          3.6048370828       -0.7409809747       -1.2235254705
 H          2.5099403847       -2.7406582405       -2.1762839334
 H          0.2382613249       -3.3609177490       -1.4888731475
 H         -1.2794540748       -2.4424010628        1.3805538663
 C         -2.0681780547       -3.1102683141       -0.4935015677
 C         -1.8652864574       -4.5679767467       -0.2132222767
 C         -3.1719426224       -3.9153670618        0.1214252324
 H         -4.0374032930       -4.1497177978       -0.4800105306
 H         -3.4009669357       -3.7283931420        1.1609849052
 H         -1.8368167981       -5.2546026456       -1.0458137598
 H         -1.2100419696       -4.8344479032        0.6024735889
 H         -2.1916847148       -2.7965795076       -1.5235504284
