  62
        -98.94054196
 C          1.5476588921        1.3949349802        0.3054396566
 C          1.5437034353        0.1779415078        1.0360027213
 C          2.2668969497       -0.9512642742        0.4449346874
 C          2.8199697635       -0.8033472423       -0.7718226786
 C          3.6093646777       -1.8585619756       -1.4895376127
 C          5.1054099268       -1.7620432717       -1.1589702018
 C          5.4017033155       -1.6706894843        0.3378858893
 H          5.0066923220       -0.7269232587        0.7204646876
 H          6.4871462026       -1.6367946622        0.4528252023
 C          4.8342138104       -2.8304647786        1.1679329493
 H          5.6034579559       -3.1730809259        1.8630792739
 H          4.5906242220       -3.6687112499        0.5142795010
 C          3.6060596655       -2.4681713088        2.0046575279
 H          3.8160398671       -1.5709764062        2.5921103891
 H          3.4205677728       -3.2849254200        2.7070175589
 C          2.3073623496       -2.2371570382        1.2213760885
 H          1.4887850629       -2.1742116513        1.9445794716
 H          2.1139722242       -3.0864453320        0.5619700489
 H          5.5093007563       -0.8705607414       -1.6445021725
 H          5.6077808550       -2.6350477190       -1.5795890390
 H          3.2243219166       -2.8383546020       -1.2124090963
 H          3.4691552978       -1.7187370419       -2.5630478009
 O          2.7542753357        0.3538979866       -1.4730497088
 C          2.0942939234        1.4731572419       -0.9747727308
 O          2.0877268708        2.4350710577       -1.7670972072
 H         -0.4772810577        1.6327168750       -1.2831525720
 C         -1.1628100762        1.7049483397       -0.4489221677
 C         -0.7127877955        2.1989911245        0.7679404356
 C         -1.6101564131        2.2766146114        1.8251187727
 C         -2.9174547645        1.8453690262        1.6756813921
 C         -3.3419323425        1.2943183941        0.4794206452
 C         -2.4534689210        1.2253498357       -0.5846636375
 N         -2.8521841931        0.5370811238       -1.7709026635
 S         -2.2118430030       -1.0309401894       -1.7364299164
 O         -0.7674806311       -1.0147330170       -1.6293075606
 O         -2.7375416048       -1.6978564818       -2.9085563079
 C         -2.9401882856       -1.6982090228       -0.2597802691
 C         -4.2195075323       -2.2147671433       -0.3284219283
 C         -4.8117574364       -2.6900745599        0.8304351476
 C         -4.1197689488       -2.6344769405        2.0312485501
 C         -2.8362948869       -2.1122622421        2.0822587287
 C         -2.2362289058       -1.6369870591        0.9267764674
 H         -1.2408051668       -1.2184213009        0.9337606733
 H         -2.2952518284       -2.0624586043        3.0135554455
 H         -4.5819434340       -3.0002814899        2.9345120805
 H         -5.8090921185       -3.0978403026        0.7949770696
 H         -4.7144550739       -2.2365396194       -1.2853039777
 H         -2.5116191792        0.9863215422       -2.6119685734
 H         -4.3404251988        0.9066529204        0.3612198616
 H         -3.6013327267        1.9071487986        2.5076230493
 H         -1.2672715402        2.6465598450        2.7799499500
 C          0.7497597415        2.5303523706        0.9297613924
 H          0.9735372170        2.4908185598        2.0084565637
 C          1.1148755189        3.9194998036        0.4377804753
 C          0.2555905798        4.6996437666       -0.5069246943
 C          0.3471085861        5.1105945424        0.9303239552
 H          0.8921870747        6.0085659079        1.1775571359
 H         -0.5132335151        4.9257835240        1.5553587823
 H         -0.6619978848        4.2480657536       -0.8517901294
 H          0.7521186848        5.2953240209       -1.2573594343
 H          2.1860077287        4.0417288841        0.3214458017
 O          0.9509589330        0.0515464923        2.1415987197
