  62
        -98.93843911
 C         -1.5886810696       -1.5231234394        0.5617328854
 C         -2.5296796226       -1.1109279658       -0.4113399383
 C         -3.3292996818        0.0845537699       -0.0809964305
 C         -3.0700195847        0.7748089235        1.0438510018
 C         -3.7253265083        2.0118137604        1.6200888028
 C         -4.5491185588        2.9439137790        0.7337807061
 C         -3.7681425593        3.6338913195       -0.3829795039
 H         -4.4733118930        4.2307489563       -0.9659425371
 H         -3.0470440148        4.3205416771        0.0677939606
 C         -3.0067545222        2.7063413917       -1.3278852312
 H         -2.5533048329        3.3230625536       -2.1084513231
 H         -2.1926840610        2.2154191595       -0.7912493020
 C         -3.8516630255        1.6353595020       -2.0156201313
 H         -3.2317034450        1.1812880119       -2.7927743140
 H         -4.7131520962        2.0973293935       -2.5014724156
 C         -4.3485805724        0.4989598554       -1.1024323857
 H         -5.2862542752        0.7583816327       -0.6161474872
 H         -4.5346083685       -0.3781002100       -1.7285028070
 H         -5.4049827499        2.4173473841        0.3218978441
 H         -4.9442991265        3.7238491748        1.3907007875
 H         -4.3649099568        1.6626853289        2.4385637780
 H         -2.9172207844        2.5854470419        2.0846292012
 O         -2.1059482144        0.3736029727        1.9238066296
 C         -1.3581714859       -0.7683912012        1.7142336794
 O         -0.5227044528       -1.0020943886        2.6114449770
 H          1.6881078937       -2.0182089130        1.4211446811
 C          1.6718023759       -1.8532379685        0.3522249220
 C          0.5401097149       -2.2048372833       -0.3697602924
 C          0.5174662457       -1.9567130085       -1.7380929679
 C          1.6034892201       -1.3655222123       -2.3587041187
 C          2.7251969324       -1.0012474138       -1.6330949346
 C          2.7542508948       -1.2458422661       -0.2669291205
 N          3.8746855728       -0.8490627510        0.4892584947
 S          4.3598302884        0.7417823083        0.3072983034
 O          5.1844343712        0.8585299252       -0.8696919386
 O          4.9980479109        1.0951301383        1.5561599352
 C          2.8650299974        1.6939739295        0.0829509254
 C          1.8472907045        1.5678478356        1.0077859936
 C          0.6954057428        2.3197944437        0.8436532185
 C          0.5826850362        3.1875203154       -0.2314168827
 C          1.6117201109        3.3007139370       -1.1531475029
 C          2.7629763151        2.5456208873       -0.9983564294
 H          3.5851119943        2.5985050050       -1.6934215962
 H          1.5186196348        3.9736043097       -1.9901901255
 H         -0.3123334803        3.7774493382       -0.3508365331
 H         -0.1079134834        2.2122973112        1.5562664795
 H          1.9462046338        0.8909317204        1.8418833197
 H          3.7973875094       -1.0812483668        1.4693975862
 H          3.5717522323       -0.5233335005       -2.0993196457
 H          1.5733755496       -1.1742427767       -3.4205233937
 H         -0.3695475062       -2.1977680299       -2.3025324527
 C         -0.6654987673       -2.7203880863        0.3774532227
 H         -0.3361526192       -3.0041973923        1.3862407017
 C         -1.3084912881       -3.9267479366       -0.2691456197
 C         -0.6138289991       -5.2501312732       -0.1622951130
 C         -1.8789749555       -5.0036359831        0.6019847177
 H         -2.7822565767       -5.5001454105        0.2809920158
 H         -1.8108973041       -4.8736808223        1.6725972160
 H         -0.6456528014       -5.9183029553       -1.0089900876
 H          0.3135948075       -5.2852586291        0.3898148422
 H         -1.8353118277       -3.7060349403       -1.1866899020
 O         -2.7216424417       -1.6957016112       -1.5082138621
