  62
        -98.93800200
 C          1.5816830796        1.6179644000        0.2640091311
 C          1.7707146399        0.4570098199        1.0534856708
 C          2.8767766104       -0.4455056996        0.6824483509
 C          3.6285337404       -0.1338019790       -0.3898684289
 C          4.8098186209       -0.8764275684       -0.9585216789
 C          4.4101166315       -2.1364667984       -1.7402549692
 C          3.3662894917       -3.0058502890       -1.0460633096
 H          3.0913240822       -3.8096830289       -1.7341164299
 H          2.4740330615       -2.4049416094       -0.8664336097
 C          3.8230493117       -3.6431943891        0.2642611203
 H          4.7279375220       -4.2272443187        0.0829213103
 H          3.0422354620       -4.3395932495        0.5807979100
 C          4.0893577911       -2.6758689692        1.4207564006
 H          5.0628308309       -2.2024908088        1.3227523309
 H          4.1260899912       -3.2692188994        2.3388999004
 C          3.0132476606       -1.6144487397        1.6280258206
 H          3.1506409003       -1.1699712399        2.6209743707
 H          2.0284246008       -2.0937624701        1.6638369003
 H          5.3104181518       -2.7222900280       -1.9336058292
 H          3.9994548516       -1.8225859483       -2.7030334592
 H          5.5108198908       -1.1219381883       -0.1661259388
 H          5.3103015407       -0.1870833480       -1.6422696486
 O          3.3694403101        0.9612019411       -1.1583696987
 C          2.3508364397        1.8532203606       -0.8752027487
 O          2.2551407095        2.7813051107       -1.7011323285
 O          1.0484099898        0.1864607794        2.0509792106
 C          0.4743307491        2.5651774794        0.6960292311
 C         -0.7898011506        2.2326303391       -0.0575649993
 C         -0.9605732505        2.5716953793       -1.3953190492
 C         -2.1180777902        2.2152994890       -2.0644460095
 C         -3.1241381900        1.5158115685       -1.4196860499
 C         -2.9544403302        1.1591697082       -0.0886141499
 C         -1.7949051104        1.5213234185        0.5829654304
 H         -1.6585095905        1.2284369383        1.6152917703
 N         -3.9674701700        0.4318742676        0.5734004397
 S         -4.3037284192       -1.1024940724       -0.0052227607
 O         -4.7964430790       -0.9957678123       -1.3542683708
 O         -5.2000686692       -1.6921408930        0.9619967989
 C         -2.7407379589       -1.9612045717        0.0108461394
 C         -1.8542177788       -1.7615143011       -1.0285035204
 C         -0.6241284185       -2.3973660406       -0.9875802003
 C         -0.3047070284       -3.2175324907        0.0831734896
 C         -1.2027117885       -3.4013094213        1.1226517194
 C         -2.4315509288       -2.7630997118        1.0910439793
 H         -3.1617646889       -2.8825445723        1.8753723091
 H         -0.9472849484       -4.0357599614        1.9562047493
 H          0.6504874918       -3.7180567903        0.1041657696
 H          0.0802614916       -2.2490957901       -1.7912602301
 H         -2.1381983689       -1.1242357610       -1.8503154303
 H         -3.8247216402        0.3795777375        1.5727761897
 H         -4.0250584698        1.2209370182       -1.9329126101
 H         -2.2397587701        2.4856980692       -3.1025689295
 H         -0.1692756606        3.0933655098       -1.9110271989
 H          0.2974411290        2.3322837491        1.7548953710
 C          0.8409828585        4.0302280496        0.5856053215
 C          0.0394868580        5.0335865191        1.3576914916
 C          1.4471633880        4.7230777296        1.7674126618
 H          2.2128575477        5.4637235799        1.5920856121
 H          1.6007376281        4.1424329594        2.6654918217
 H         -0.1652046723        5.9898693691        0.9016365417
 H         -0.7625823520        4.6623966786        1.9778981813
 H          1.2016678186        4.3187692900       -0.3922059284
