  62
        -98.94352635
 C         -1.7828592996       -1.1121589116        0.2613834696
 C         -2.3038580299       -0.1159509527        1.1292167306
 C         -3.7417663901        0.1531661068        1.0251201112
 C         -4.4899679299       -0.5553878527        0.1604872406
 C         -5.9759523300       -0.4299766932       -0.0395509790
 C         -6.3850956607        0.6952181976       -0.9994610878
 C         -6.2250595712        2.1111756271       -0.4449726465
 H         -6.7464746016        2.7843188175       -1.1283654357
 H         -6.7230690810        2.1799980660        0.5226590737
 C         -4.7683734814        2.5768925476       -0.3104739163
 H         -4.1215089712        1.9324556885       -0.9105511570
 H         -4.6705085819        3.5883902881       -0.7112715553
 C         -4.2405552311        2.6068720165        1.1241724236
 H         -4.7949633313        3.3488911257        1.7033199045
 H         -3.1923178913        2.9167985770        1.0967966137
 C         -4.3176472304        1.2600744957        1.8554938424
 H         -5.3502499202        1.0368855650        2.1238674123
 H         -3.7250158903        1.3327505151        2.7708239923
 H         -7.4373576607        0.5431238274       -1.2503626578
 H         -5.8058578008        0.5971140087       -1.9204189080
 H         -6.3135046197       -1.3801009529       -0.4591120698
 H         -6.4636995099       -0.2825318943        0.9244312913
 O         -3.9605579496       -1.5154683817       -0.6388593704
 C         -2.6019007895       -1.8032333111       -0.6326344309
 O         -2.2844754393       -2.6871348002       -1.4515896319
 O         -1.5987987200        0.5105825068        1.9656149711
 C         -0.2905486195       -1.3876985110        0.3521663490
 C          0.4545759600       -0.6947480796       -0.7639072704
 C          0.3694109999       -1.1341691184       -2.0816027608
 C          1.0545656195       -0.4735892771       -3.0841765903
 C          1.8508471290        0.6207416130       -2.7941762594
 C          1.9411255691        1.0687619917       -1.4821135190
 C          1.2438779395        0.4105479504       -0.4774514895
 H          1.3021322696        0.7865640795        0.5332429908
 N          2.7390542986        2.1759055418       -1.1576583981
 S          3.6281734089        2.1646058808        0.2555134318
 O          2.7924576190        2.4878831393        1.3837415322
 O          4.7207242985        3.0791440015       -0.0009496776
 C          4.2576434597        0.5015747309        0.4098214600
 C          4.9874851997       -0.0249127177       -0.6380169706
 C          5.4870524303       -1.3120851776       -0.5277721520
 C          5.2569754008       -2.0457311789        0.6258914174
 C          4.5291908208       -1.5008811002        1.6723405680
 C          4.0198245502       -0.2158869703        1.5637237294
 H          3.4392814401        0.2414439287        2.3495434999
 H          4.3540610112       -2.0715713811        2.5707011775
 H          5.6459241413       -3.0478951988        0.7116532963
 H          6.0539006403       -1.7383955566       -1.3395107725
 H          5.1622752893        0.5748510932       -1.5161496501
 H          3.2627802883        2.5636292027       -1.9284565078
 H          2.3890970487        1.1327101040       -3.5773174590
 H          0.9740184794       -0.8192275862       -4.1035615006
 H         -0.2594952297       -1.9790763784       -2.3133129415
 H          0.0261173305       -0.9216311118        1.2953820994
 C          0.0470328812       -2.8650616609        0.4076446375
 C          1.4181230914       -3.2729965908        0.8525784969
 C          0.2366708617       -3.5229200522        1.7398956369
 H         -0.1110093278       -4.5371833124        1.8668074759
 H          0.1199399516       -2.9089685731        2.6212776575
 H          1.8850516517       -4.1169049901        0.3692294660
 H          2.1047937811       -2.4862889807        1.1270591475
 H         -0.4262020487       -3.4472088004       -0.3715630429
