  62
        -98.94936833
 C          1.5198442706        1.4329959290       -0.2883451886
 C          2.7076391799        0.9159313279        0.2765410819
 C          3.1670359591       -0.3672314024       -0.2659374181
 C          2.4552261690       -0.9774099417       -1.2306038785
 C          2.7741519081       -2.3057468318       -1.8608892586
 C          2.2852379568       -3.5057583515       -1.0372196789
 C          3.1130956760       -3.8159263824        0.2106725314
 H          2.8226735550       -4.8133863022        0.5469596211
 H          4.1715138361       -3.8538427133       -0.0513278582
 C          2.8979099763       -2.8299251524        1.3673407114
 H          1.9623733769       -2.2864481416        1.2117108911
 H          2.7815976555       -3.3866132724        2.3008364913
 C          4.0387834571       -1.8336311734        1.5768226720
 H          3.7515043873       -1.1518804832        2.3816390520
 H          4.9371342665       -2.3692131042        1.8939766423
 C          4.3862635483       -0.9911939735        0.3431708223
 H          5.0487766389       -0.1815203041        0.6605098127
 H          4.9083760881       -1.6018659438       -0.3933714176
 H          1.2478978368       -3.3311299607       -0.7387079593
 H          2.3047332463       -4.3820842915       -1.6898097290
 H          2.2700623485       -2.3218572313       -2.8297233288
 H          3.8487269981       -2.3893932427       -2.0270029381
 O          1.3345714696       -0.4312282706       -1.7716726489
 C          0.8277096205        0.7731263297       -1.3030862689
 O         -0.2181500190        1.1455504207       -1.8672665893
 O          3.3496777801        1.4961807173        1.1948888022
 C          0.9118674014        2.7006213494        0.2797849614
 C         -0.5019978690        2.4279703606        0.7352007807
 C         -1.5294520681        3.3563272015        0.6197078705
 C         -2.8119382386        3.0405064425        1.0342466899
 C         -3.1029852298        1.7913419826        1.5512716096
 C         -2.0796215807        0.8604247618        1.6817299899
 C         -0.7911331002        1.1929980807        1.3013043405
 H         -0.0103004909        0.4559163401        1.4177925607
 N         -2.3185909020       -0.4335708381        2.1896463896
 S         -1.9242707927       -1.7286113383        1.2032287096
 O         -2.5381929339       -2.8714305779        1.8489939592
 O         -0.4991153526       -1.8035478495        1.0138364102
 C         -2.7539030718       -1.4185970174       -0.3446289307
 C         -4.1253104916       -1.2475804962       -0.3244928612
 C         -4.7868462709       -0.9870522555       -1.5122290215
 C         -4.0693349504       -0.9037662660       -2.6964891112
 C         -2.6969432605       -1.0907911771       -2.7018706406
 C         -2.0298476312       -1.3507809878       -1.5148831404
 H         -0.9612876314       -1.4863836787       -1.4825953100
 H         -2.1335206601       -1.0230363275       -3.6184282204
 H         -4.5830222998       -0.6945735954       -3.6216199513
 H         -5.8559053908       -0.8472488146       -1.5125752219
 H         -4.6552906121       -1.3358452759        0.6103124185
 H         -3.2508680522       -0.5612211674        2.5583596392
 H         -4.1080018602        1.5379444035        1.8527582092
 H         -3.5994688879        3.7719221631        0.9363556997
 H         -1.3264171972        4.3270950913        0.1976203307
 H          1.5215350113        2.9536618888        1.1606846016
 C          1.0057711828        3.8358409795       -0.7196744784
 C          1.1894286838        5.2485561693       -0.2532752482
 C          2.3241241835        4.5224847284       -0.9089656778
 H          2.6175774141        4.8109588183       -1.9070917177
 H          3.1459100829        4.1895375776       -0.2917771175
 H          0.7049020647        6.0405023198       -0.8043161883
 H          1.2494232935        5.4214680691        0.8106909619
 H          0.4008477830        3.6595289001       -1.6020877087
