  62
        -98.94050131
 C         -2.6484027415       -1.2773062021       -0.2831650750
 C         -2.3176496174       -0.0812692322       -0.9647125539
 C         -3.3917339955        0.9189458429       -1.0580042520
 C         -4.5948739594        0.6501776643       -0.5192413840
 C         -5.7577898671        1.5984749587       -0.4970555750
 C         -5.7541939566        2.4506381781        0.7797532935
 C         -4.4044479469        3.1005908381        1.0849369167
 H         -4.5291311171        3.7010377836        1.9887604131
 H         -3.6750287327        2.3207889690        1.3175272654
 C         -3.8558785225        3.9846076536       -0.0438069504
 H         -3.4798766230        4.9132042427        0.3907924621
 H         -4.6604176101        4.2502584324       -0.7305852432
 C         -2.7010027651        3.3642401434       -0.8326506900
 H         -2.2518236870        4.1477506744       -1.4490425229
 H         -1.9299411589        3.0127471626       -0.1412245196
 C         -3.0766957579        2.2063871195       -1.7661602973
 H         -3.9063123533        2.5067964952       -2.4093471000
 H         -2.2087403353        1.9958996841       -2.3978237619
 H         -6.0241740867        1.8116960950        1.6237076427
 H         -6.5178973461        3.2241313576        0.6810655342
 H         -5.7139606402        2.2399811183       -1.3748906518
 H         -6.6785485183        1.0137235943       -0.5300260643
 O         -4.8769451935       -0.5143866872        0.1186989693
 C         -3.9110900271       -1.4941772036        0.2707746086
 O         -4.2929032350       -2.4989299134        0.9039887979
 H          0.9971926282       -1.7556091239       -0.7723913138
 C          0.7714578648       -1.5458499328        0.2609765565
 C         -0.4917816834       -1.8151580041        0.7589924085
 C         -0.7627665227       -1.5121217850        2.0912460522
 C          0.2092332604       -0.9566506992        2.9002678819
 C          1.4720515537       -0.6887858565        2.3994028851
 C          1.7495301690       -0.9794908866        1.0713797053
 N          3.0331504929       -0.7308109892        0.5499328672
 S          3.8096486010        0.6992362045        1.0019605210
 O          4.3600423597        0.5182938263        2.3228481110
 O          2.9273959559        1.8329023928        0.8381565871
 C          5.1297577302        0.7485512766       -0.1934668068
 C          5.0137201487        1.5637500570       -1.3029829410
 C          6.0394235634        1.5754606832       -2.2354659786
 C          7.1545450808        0.7733548186       -2.0451700982
 C          7.2554390981       -0.0411456252       -0.9268357781
 C          6.2349132212       -0.0561814977        0.0103017580
 H          6.2733683401       -0.6647470430        0.8984916532
 H          8.1248133636       -0.6620446393       -0.7824409434
 H          7.9508985380        0.7851998534       -2.7725129112
 H          5.9643731262        2.2089588293       -3.1046940773
 H          4.1304674623        2.1738970896       -1.4068941942
 H          3.0533701031       -0.8391582732       -0.4554393949
 H          2.2360241402       -0.2449088346        3.0168878937
 H         -0.0155065901       -0.7251074458        3.9309740057
 H         -1.7534089792       -1.7102531371        2.4787636732
 C         -1.6083538118       -2.3692963449       -0.0924401669
 H         -2.1066753395       -3.1648706402        0.4783042020
 C         -1.1565732794       -2.9330098648       -1.4226030632
 C         -0.4719414484       -4.2651560032       -1.4679677016
 C         -1.8696281031       -4.1222660358       -1.9891392632
 H         -2.0305212528       -4.1655265241       -3.0559029300
 H         -2.6794500167       -4.5402376546       -1.4090827044
 H          0.3274416597       -4.4120400351       -2.1781914099
 H         -0.3304273291       -4.7832960691       -0.5316152413
 H         -0.8369838335       -2.1687109988       -2.1207340121
 O         -1.1897655442        0.1440964489       -1.4774907750
