  62
        -98.93747367
 C          1.7892445643        0.8960325770        0.3787050966
 C          2.4608203092        0.3145479618       -0.7232692169
 C          3.5901160507       -0.5711975752       -0.3944942920
 C          3.8851878718       -0.8102937104        0.8961047518
 C          5.0515896678       -1.6187254713        1.3890839926
 C          6.3473329502       -0.7887786529        1.2861886877
 C          7.3687161056       -1.3348707414        0.2882411673
 H          8.1293030639       -0.5644528945        0.1447249024
 H          7.8611730749       -2.2061678071        0.7251951850
 C          6.8133166824       -1.7478051220       -1.0783341046
 H          7.6682543698       -1.8556823086       -1.7492589539
 H          6.3507377085       -2.7332201678       -1.0043329953
 C          5.8072035062       -0.7801316753       -1.7148071570
 H          6.0061264018       -0.7413139751       -2.7877053146
 H          5.9480212221        0.2297814160       -1.3290583224
 C          4.3313318887       -1.1883767688       -1.5479450944
 H          3.7773110963       -0.8709145429       -2.4364923699
 H          4.2577924188       -2.2779844822       -1.4890578965
 H          6.8231639791       -0.7343569394        2.2665167683
 H          6.0781823200        0.2330386654        1.0106544638
 H          5.1361111615       -2.5348321212        0.8086360053
 H          4.8500196815       -1.8811151822        2.4279585371
 O          3.1821045339       -0.2720397739        1.9270300396
 C          2.1219986840        0.5898170224        1.6972171167
 O          1.5583085159        1.0010598011        2.7325185864
 O          2.1379994241        0.5236870116       -1.9211394994
 C          0.6319405015        1.8519631615        0.1472437997
 C         -0.4883894008        1.1375612640       -0.5696696191
 C         -1.1022922397        1.6213304851       -1.7165857164
 C         -2.1245809694        0.9068778024       -2.3188140986
 C         -2.5644190185       -0.2904233989       -1.7868140825
 C         -1.9701338761       -0.7729827559       -0.6266955239
 C         -0.9453599962       -0.0580648925       -0.0272427259
 H         -0.4801623565       -0.4367462846        0.8750498354
 N         -2.4280494017       -1.9758360113       -0.0625076206
 S         -4.0829877387       -2.1996367038        0.0527050009
 O         -4.2696339542       -3.0735429345        1.1899506074
 O         -4.5944470733       -2.6878103434       -1.2038341721
 C         -4.7566206105       -0.5812679414        0.3879818553
 C         -4.3174570930        0.0862427872        1.5142819216
 C         -4.8063314435        1.3560508685        1.7739236904
 C         -5.7225028656        1.9335979802        0.9079202245
 C         -6.1586445712        1.2478876181       -0.2148388656
 C         -5.6707619794       -0.0215730964       -0.4810916298
 H         -5.9789109368       -0.5884302226       -1.3444570608
 H         -6.8727243083        1.6985650672       -0.8849604564
 H         -6.0976955369        2.9240016517        1.1117582106
 H         -4.4670292050        1.8899839398        2.6471689099
 H         -3.6069642113       -0.3899189105        2.1714157819
 H         -1.9621006637       -2.2309239018        0.7953990937
 H         -3.3488447382       -0.8646261208       -2.2525322445
 H         -2.5837672819        1.2876988342       -3.2180346409
 H         -0.7740721283        2.5523308962       -2.1474882558
 H          0.2669566657        2.1290149408        1.1470450261
 C          1.1114334403        3.1021813225       -0.5589775796
 C          0.3808084884        4.3967594885       -0.3713252447
 C          1.7279790658        4.1990745232        0.2542231367
 H          2.5726898351        4.7324170802       -0.1553736009
 H          1.7820553836        4.0539403235        1.3237007950
 H          0.3018474666        5.0712198498       -1.2103861316
 H         -0.4828712136        4.3934420747        0.2760067987
 H          1.5480820906        2.8930496505       -1.5284114571
