  62
        -98.93786878
 C          1.2771372925        1.3699712693        0.2743935291
 C          1.8533560873        0.4511293381        1.1845538132
 C          3.1140798034       -0.1944147962        0.7785516529
 C          3.6106789470        0.0498488709       -0.4483132855
 C          4.8850986550       -0.4113029452       -1.1249563638
 C          5.7415417233       -1.5125241572       -0.5070857413
 C          5.1092799789       -2.9041419144       -0.5445397636
 H          5.1067701060       -3.2549379969       -1.5796674919
 H          5.7367891270       -3.5841678623        0.0354451709
 C          3.6743687782       -2.9913745440       -0.0302858429
 H          3.0209787223       -2.3689036696       -0.6459149225
 H          3.3339581853       -4.0233330632       -0.1544039270
 C          3.4796688278       -2.6145928158        1.4365277044
 H          4.1308571604       -3.2276334004        2.0632132246
 H          2.4439990025       -2.8500011993        1.6980781771
 C          3.7224609926       -1.1355982957        1.7786701487
 H          4.7829902549       -0.9311325363        1.9055931614
 H          3.2308619607       -0.9273289219        2.7336472314
 H          6.0227738288       -1.2445572550        0.5071145921
 H          6.6650107565       -1.5548894205       -1.0908170715
 H          4.5959139118       -0.7075241390       -2.1385365744
 H          5.5010894649        0.4885108409       -1.2324513399
 O          2.9709855024        0.8752121639       -1.3273629814
 C          1.7967251881        1.5413350234       -1.0077013420
 O          1.3407517800        2.2299320106       -1.9390652947
 O          1.3387932791        0.1856930413        2.3044706666
 C         -0.0064558988        2.0653219947        0.6875746033
 C         -1.0668586378        1.8718961011       -0.3668827440
 C         -1.8043553127        2.9023021977       -0.9342163447
 C         -2.7768294293        2.6252416020       -1.8798642102
 C         -3.0545610247        1.3243127610       -2.2572636920
 C         -2.3198945409        0.2858258353       -1.6960052454
 C         -1.3330569960        0.5688306378       -0.7673092365
 H         -0.7439576306       -0.2413505374       -0.3639869022
 N         -2.5700154262       -1.0529975294       -2.0361331206
 S         -2.4636186845       -2.2155349230       -0.8387199054
 O         -1.0854933925       -2.5552563819       -0.5864282185
 O         -3.2993948337       -3.2980107889       -1.3142411472
 C         -3.2074542686       -1.4598717718        0.5968811504
 C         -2.4445712578       -1.1389722186        1.7006875432
 C         -3.0522749743       -0.5039886710        2.7727959550
 C         -4.4041235108       -0.2028644745        2.7236638880
 C         -5.1600318058       -0.5409507997        1.6112276282
 C         -4.5577750411       -1.1731210697        0.5363875417
 H         -5.1142872308       -1.4599448585       -0.3409663484
 H         -6.2125393472       -0.3104745941        1.5777128307
 H         -4.8700303522        0.2960550795        3.5586847666
 H         -2.4590988428       -0.2431467994        3.6349687132
 H         -1.3925004654       -1.3787686514        1.7101402088
 H         -3.3658255293       -1.1992784612       -2.6393305510
 H         -3.8194707042        1.1114086414       -2.9881622774
 H         -3.3341190592        3.4359959107       -2.3238418184
 H         -1.6035221561        3.9234470333       -0.6557056664
 H         -0.3340501121        1.5092271628        1.5830572493
 C          0.1679284162        3.5125064557        1.1225165337
 C          1.4891467046        4.0193915894        1.6165323673
 C          0.9383997895        4.5105029086        0.3129550609
 H          0.5690306705        5.5245720431        0.2647615648
 H          1.3927492909        4.1661870507       -0.6023120462
 H          1.4978487925        4.6925103317        2.4607400893
 H          2.3278644290        3.3383682759        1.5913967709
 H         -0.7090500348        3.8850387451        1.6428457275
