  62
        -98.94523980
 C         -2.4530404990       -1.2102850944       -0.0754536904
 C         -3.5226638719       -0.7999508342        0.7607303214
 C         -4.3831844240        0.2626723462        0.2319098992
 C         -4.1298804019        0.7826105587       -0.9827839305
 C         -4.9222966535        1.8642753524       -1.6653525868
 C         -4.5268929951        3.2860795461       -1.2431659582
 C         -4.9691915189        3.6945075408        0.1626429027
 H         -4.8224140049        4.7734333766        0.2427341320
 H         -6.0363340173        3.5015380773        0.2766830834
 C         -4.1950766241        3.0064135622        1.2957563183
 H         -3.9077938014        3.7492686993        2.0433143517
 H         -3.2701426825        2.5801691669        0.8992236624
 C         -4.9752611889        1.9108398728        2.0225406906
 H         -4.3199866965        1.4675537623        2.7764635479
 H         -5.8319553811        2.3514601325        2.5370743496
 C         -5.4793181339        0.7839789380        1.1114972809
 H         -5.8197227108       -0.0406283518        1.7423864703
 H         -6.3171148135        1.1332161073        0.5086824597
 H         -4.9807020407        3.9759782864       -1.9584603244
 H         -3.4420032457        3.3864897978       -1.3280569220
 H         -4.7344154649        1.7587077660       -2.7360230903
 H         -5.9861555933        1.7112273021       -1.4819687243
 O         -3.1005376784        0.3548548205       -1.7603895510
 C         -2.2256687924       -0.6304398774       -1.3235452718
 O         -1.3206663129       -0.8959325058       -2.1393305845
 H          0.7286344858       -2.0811353413       -1.1237547987
 C          0.8450761181       -1.5858162684       -0.1728410971
 C         -0.1872378152       -1.6160794871        0.7515538485
 C         -0.0230115718       -0.9379129054        1.9565171013
 C          1.1458364717       -0.2518554838        2.2266753284
 C          2.1709827443       -0.2165054907        1.2969253206
 C          2.0095069306       -0.8747790207        0.0859211450
 N          3.0379593620       -0.8279532676       -0.8725439812
 S          3.6818206226        0.6775315549       -1.2483636985
 O          2.7258043128        1.7409478360       -1.0406424868
 O          4.2135875177        0.5399886913       -2.5870673040
 C          5.0401913336        0.8460270880       -0.1070873530
 C          5.1517981968        1.9840419303        0.6674931818
 C          6.2220019358        2.0982929056        1.5413978168
 C          7.1572134396        1.0782303678        1.6241518122
 C          7.0328011857       -0.0568943014        0.8368465504
 C          5.9662693611       -0.1766345254       -0.0396519777
 H          5.8342697215       -1.0402528067       -0.6696139136
 H          7.7619449589       -0.8481545509        0.9040411179
 H          7.9877935477        1.1686712896        2.3062297992
 H          6.3201155680        2.9805106851        2.1534446408
 H          4.3961828359        2.7479725729        0.5743431650
 H          2.8117355901       -1.3300095117       -1.7197296518
 H          3.0798064759        0.3284030662        1.4937417528
 H          1.2603755557        0.2654356737        3.1671309186
 H         -0.8334457000       -0.9436695494        2.6720423148
 C         -1.5089765194       -2.2787379476        0.4529172363
 H         -1.9492332759       -2.6079474268        1.4036780997
 C         -1.4067345901       -3.4710181213       -0.4740945460
 C         -0.8047644788       -4.7445813719        0.0376285933
 C         -2.2772957105       -4.6651565821       -0.2275844773
 H         -2.6785367747       -5.1930428855       -1.0797397250
 H         -2.9486101965       -4.6278261306        0.6176769574
 H         -0.1926018620       -5.3311418991       -0.6301622567
 H         -0.4749858334       -4.7593451138        1.0653143587
 H         -1.2236067886       -3.2007872661       -1.5069039496
 O         -3.7482806064       -1.3024706656        1.8930640298
