  62
        -98.94238263
 C          0.7890374389        1.4874637483        0.1642918406
 C          1.4428730012        0.4621169070        0.8821499659
 C          2.3135649314       -0.4334696653        0.1018019438
 C          2.3978470483       -0.2699638492       -1.2299699349
 C          3.1419994413       -1.1109199503       -2.2387312083
 C          4.5385514974       -1.6171067986       -1.8596873019
 C          5.3700240098       -0.6347481767       -1.0220943045
 H          6.3454008698       -0.5023470028       -1.4937439759
 H          4.8818797251        0.3412201493       -1.0021648234
 C          5.6000787707       -1.1195060079        0.4106675466
 H          5.8518414908       -2.1818667303        0.3852200876
 H          6.4598540324       -0.5889150554        0.8264617661
 C          4.4290577901       -0.9038982224        1.3677431945
 H          4.3015463612        0.1647889685        1.5599780200
 H          4.6847785740       -1.3731497444        2.3206615546
 C          3.0729425357       -1.4569343991        0.8977331456
 H          3.1931410222       -2.3901067287        0.3521232950
 H          2.4664317923       -1.6440615471        1.7876859972
 H          4.4530258075       -2.5619006375       -1.3251113954
 H          5.0580668678       -1.8322596159       -2.7951546797
 H          2.5033754631       -1.9622088718       -2.4967094137
 H          3.2097842594       -0.4857558306       -3.1328677124
 O          1.7399436336        0.7282566136       -1.8846043003
 C          0.9176471765        1.6193184510       -1.2177365740
 O          0.3821462125        2.4739559067       -1.9501138536
 H         -1.3671680275        0.1181518752        0.3667052522
 C         -1.9936898389        0.9511478040        0.0824554195
 C         -1.5446174035        2.2465023923        0.3092270864
 C         -2.3706241377        3.3057917629       -0.0407399383
 C         -3.5937864909        3.0661700145       -0.6439488368
 C         -4.0066504481        1.7774904179       -0.9267478489
 C         -3.1937868174        0.7094220694       -0.5621910123
 N         -3.5727482349       -0.6154768461       -0.8220293603
 S         -2.4076251816       -1.7720231489       -1.1495240517
 O         -1.2627641098       -1.2289089034       -1.8430496402
 O         -3.1339476573       -2.8132614740       -1.8488830682
 C         -1.9448898398       -2.3917741332        0.4531612541
 C         -2.9474672376       -2.6899194302        1.3551917666
 C         -2.6019381233       -3.2119661649        2.5908489991
 C         -1.2681984020       -3.4354814331        2.8979626462
 C         -0.2747485716       -3.1375841972        1.9788071878
 C         -0.6131503722       -2.6077975410        0.7436690368
 H          0.1322868621       -2.3425898570        0.0088704377
 H          0.7623160401       -3.3092339113        2.2180526608
 H         -0.9986182643       -3.8432249646        3.8594142632
 H         -3.3714521592       -3.4436717059        3.3094652748
 H         -3.9718254140       -2.5075290004        1.0767809839
 H         -4.3909348719       -0.7227716632       -1.4035591110
 H         -4.9436596785        1.5953587865       -1.4305172710
 H         -4.2244472100        3.8977269421       -0.9198426227
 H         -2.0508632125        4.3187724006        0.1407492255
 C         -0.1660309638        2.4107936310        0.8998235715
 H         -0.1840786001        2.0490994481        1.9387991222
 C          0.3384487589        3.8376802187        0.8848931370
 C         -0.0172897661        4.7769954631        1.9974963667
 C          1.3795202121        4.2476079438        1.8817493953
 H          2.1632373075        4.9179945559        1.5622142836
 H          1.7057594236        3.5013438521        2.5913338481
 H         -0.1911948763        5.8154946166        1.7594489758
 H         -0.6381376973        4.3954920325        2.7937117507
 H          0.4220795998        4.2371047562       -0.1198098563
 O          1.2918191296        0.2866972743        2.1216467643
