  62
        -98.95211936
 C          2.3562219605        0.3533485055        0.0411689300
 C          1.5177603794       -0.2208873130       -0.9421133299
 C          1.5322252768       -1.6866525431       -1.0264090199
 C          2.3196157356       -2.3848722444       -0.1883821899
 C          2.4453134329       -3.8807315147       -0.1728237698
 C          1.4644488718       -4.5300202129        0.8114966202
 C          0.0209964327       -4.0497265903        0.6600166703
 H         -0.0498491755       -3.0026162302        0.9638890302
 H         -0.5867205983       -4.6219942692        1.3653884503
 C         -0.5582789277       -4.2028785693       -0.7532253997
 H         -1.5717659684       -4.6013293875       -0.6700962197
 H          0.0301066710       -4.9242694504       -1.3223684997
 C         -0.6592653653       -2.8900375392       -1.5324091797
 H         -1.1213253340       -2.1342180283       -0.8922226898
 H         -1.3207676656       -3.0490793880       -2.3885521997
 C          0.6636378357       -2.3291985116       -2.0709171998
 H          0.4241943170       -1.5379598812       -2.7873636998
 H          1.2096679942       -3.1155436625       -2.5971732398
 H          1.7928702322       -4.3058081234        1.8291573402
 H          1.5056820799       -5.6124705430        0.6720576203
 H          3.4642474025       -4.1324525265        0.1279652402
 H          2.2699837322       -4.2610648944       -1.1775728998
 O          3.0953395667       -1.7996750758        0.7607665701
 C          3.1186284891       -0.4228901758        0.9115683200
 O          3.8530366999       -0.0164851071        1.8367567100
 O          0.8034679406        0.4615212482       -1.7239086699
 C          2.4204797932        1.8634392954        0.1865717700
 C          1.0309144442        2.4351067679        0.3276046400
 C          0.6149236063        3.5984002986       -0.3086476200
 C         -0.6814955029        4.0583500909       -0.1538409000
 C         -1.5938592841        3.3597305126        0.6154620401
 C         -1.1833248062        2.2017994019        1.2655539101
 C          0.1265503731        1.7685114195        1.1441929701
 H          0.4318480115        0.8689071690        1.6589383901
 N         -2.0771227875        1.4386885235        2.0463727901
 S         -2.3893975403       -0.1259557160        1.5290646402
 O         -3.3565198812       -0.6462210642        2.4721938403
 O         -1.1565484516       -0.8585481482        1.4109875502
 C         -3.1750731200        0.0804268854       -0.0599092898
 C         -4.5516630602       -0.0236848822       -0.1277784897
 C         -5.1842845198        0.1933217889       -1.3405913197
 C         -4.4328750293        0.5194234775       -2.4598987298
 C         -3.0536869191        0.6246423851       -2.3732112898
 C         -2.4115723294        0.4057703040       -1.1633104798
 H         -1.3374205593        0.4784998821       -1.0845958398
 H         -2.4609177387        0.8773845040       -3.2376217798
 H         -4.9236938390        0.6918945484       -3.4048746097
 H         -6.2570359600        0.1099045108       -1.4085493897
 H         -5.0919012106       -0.2818796212        0.7688192403
 H         -2.9559730967        1.9048434751        2.2276881902
 H         -2.6132585535        3.7018852644        0.7132733901
 H         -0.9905441213        4.9625842114       -0.6555251500
 H          1.3050300072        4.1422738573       -0.9327276601
 H          2.9722197136        2.0584153444        1.1183029400
 C          3.1957137042        2.4568612440       -0.9733562501
 C          4.0102351165        3.7008197125       -0.7865196601
 C          4.6916506541        2.3772755213       -0.9567109001
 H          5.2083048137        2.1752163003       -1.8829624101
 H          5.1509978033        1.9191527505       -0.0925816801
 H          4.0643927777        4.4095569924       -1.5991214502
 H          4.0195301873        4.1504668925        0.1948777199
 H          2.6980172639        2.3059818048       -1.9246480400
