  62
        -98.93806712
 C          2.3214006053        1.3711364108       -0.0016984108
 C          3.0022728807        0.5695970580        0.9442837660
 C          3.7187390227       -0.5986423132        0.4125729423
 C          3.6790849454       -0.8441194484       -0.9098262361
 C          4.2895078754       -2.0340701027       -1.5943655739
 C          3.3919470271       -3.2727075607       -1.3974974310
 C          4.0214587602       -4.3824336091       -0.5540093197
 H          3.2266062528       -5.0861862837       -0.2973909216
 H          4.7521362075       -4.9182803430       -1.1634503217
 C          4.7245632413       -3.9328020898        0.7304252134
 H          5.7137168489       -3.5410899793        0.4892936786
 H          4.8825576963       -4.8283000199        1.3350463751
 C          3.9777408545       -2.8934256924        1.5763313304
 H          4.1141517356       -3.1499080772        2.6289492592
 H          2.9060772111       -2.9348385251        1.3764414891
 C          4.4749946758       -1.4462989669        1.3978439335
 H          4.3754805333       -0.9221504038        2.3529951194
 H          5.5363488791       -1.4540984390        1.1358797514
 H          2.4541979654       -2.9489429005       -0.9387483935
 H          3.1305153207       -3.6909390294       -2.3708287543
 H          4.3714361429       -1.7912870126       -2.6539279518
 H          5.2861701823       -2.2161190184       -1.1987024068
 O          2.9974331429       -0.0618057617       -1.7859501166
 C          2.2868163468        1.0510766583       -1.3590157333
 O          1.6897719237        1.6563081879       -2.2680231548
 H          0.1830640916        0.5140150588        1.4324456720
 C         -0.4645887668        1.1544556276        0.8453141047
 C          0.0651669789        2.3079482746        0.2777857112
 C         -0.7727956495        3.1202306552       -0.4728342411
 C         -2.1002001142        2.7720269997       -0.6592977731
 C         -2.6194612022        1.6187737797       -0.1008624526
 C         -1.7905674223        0.8025290576        0.6584583161
 N         -2.3112245376       -0.3757783982        1.2335832739
 S         -2.9269706238       -1.5133370802        0.1562008653
 O         -2.8324898456       -2.7814213922        0.8475685940
 O         -2.2714320777       -1.4329925034       -1.1296013227
 C         -4.6408013754       -1.0574607703        0.0066407350
 C         -5.4102759445       -1.0403605169        1.1537023260
 C         -6.7451201775       -0.6812183423        1.0577838819
 C         -7.2847416191       -0.3496051129       -0.1763050878
 C         -6.4995676661       -0.3755492372       -1.3188208782
 C         -5.1629724368       -0.7330684464       -1.2299283416
 H         -4.5110484149       -0.7601444903       -2.0886533359
 H         -6.9205641046       -0.1173672690       -2.2771986159
 H         -8.3235963795       -0.0689100851       -0.2483710155
 H         -7.3589851557       -0.6598115685        1.9437207115
 H         -4.9513062658       -1.3082626648        2.0906146582
 H         -1.6595694996       -0.8256198954        1.8618622739
 H         -3.6509069255        1.3437706228       -0.2492272281
 H         -2.7390612863        3.4084298318       -1.2523341502
 H         -0.3841422832        4.0175869999       -0.9247912830
 C          1.5351660639        2.5749920315        0.4905316908
 H          1.7195392281        2.6189055987        1.5739839900
 C          2.0300594138        3.8567632833       -0.1416932563
 C          1.7982909675        5.1666000131        0.5488501160
 C          3.1771003478        4.5830437083        0.4923009366
 H          3.9101182590        5.0472595205       -0.1501140400
 H          3.5938463238        4.1623705198        1.3958530872
 H          1.2780132708        5.1464218983        1.4943727497
 H          1.5856674199        6.0364357724       -0.0537126510
 H          1.9922520059        3.8324401178       -1.2244185239
 O          3.0050198076        0.8165033377        2.1818588971
