  62
        -98.94877625
 C         -1.8167539585       -1.3301340066       -0.2474267917
 C         -2.8853802808       -0.6388525297        0.3677010418
 C         -3.2551680515        0.6411719279       -0.2436509007
 C         -2.5897558402        1.0799110865       -1.3280681392
 C         -2.8389958275        2.3731141734       -2.0547283505
 C         -2.1143989841        3.5691667698       -1.4214576971
 C         -2.7302618228        4.0810369433       -0.1186391029
 H         -2.2793656972        5.0537586456        0.0881262050
 H         -3.8011560677        4.2379659204       -0.2564135288
 C         -2.4898562277        3.1645057468        1.0892272174
 H         -1.6621919017        2.4859531692        0.8652489009
 H         -2.1768763339        3.7678104768        1.9456559115
 C         -3.7117282077        2.3553152710        1.5269208330
 H         -4.4885830651        3.0345028185        1.8863055409
 H         -3.4154033117        1.7128243655        2.3606095381
 C         -4.3113214513        1.4634275180        0.4317577424
 H         -5.0195802041        0.7758320401        0.9012886633
 H         -4.8447131863        2.0721008795       -0.2978208992
 H         -1.0736652432        3.2878937654       -1.2387189696
 H         -2.1215018365        4.3835316924       -2.1499776060
 H         -2.4607979827        2.2388454186       -3.0703819757
 H         -3.9097298155        2.5737476496       -2.1034747966
 O         -1.5905057239        0.3702986992       -1.9103054884
 C         -1.1363113020       -0.8109502405       -1.3498521382
 O         -0.1504980552       -1.3083248095       -1.9279778183
 O         -3.4905750182       -1.0653643245        1.3904251859
 C         -1.2897575619       -2.6039784121        0.3932306591
 C          0.1485107820       -2.3635157746        0.7795506236
 C          1.1966770027       -3.2176160872        0.4641913008
 C          2.5053320528       -2.8589195664        0.7426889327
 C          2.7974412541       -1.6333423794        1.3137215169
 C          1.7523869898       -0.7875356468        1.6589126043
 C          0.4444404921       -1.1687045530        1.4254272858
 H         -0.3604231526       -0.4924797278        1.6878121411
 N          2.0527397352        0.5210566354        2.1446779594
 S          1.9269403598        1.6312427212        0.8720286471
 O          2.2696374707        2.9184149687        1.4406058645
 O          0.6292850957        1.5678407090        0.2346474548
 C          3.2090916455        1.0753362891       -0.2227193820
 C          4.5015842170        1.4986538002        0.0204811765
 C          5.5233647416        1.0275572181       -0.7873288045
 C          5.2355921184        0.1403299818       -1.8141491441
 C          3.9328462829       -0.2749735144       -2.0426031250
 C          2.9032736469        0.1934804939       -1.2402346315
 H          1.8806797729       -0.1187454571       -1.3935683588
 H          3.7039083366       -0.9671288465       -2.8369564861
 H          6.0308681962       -0.2308335472       -2.4412428643
 H          6.5375153999        1.3490173252       -0.6129342325
 H          4.6719121293        2.1894987363        0.8297703628
 H          1.4178017477        0.8186696145        2.8748144437
 H          3.8137562282       -1.3204150701        1.4889882626
 H          3.3090628519       -3.5297208442        0.4818361625
 H          0.9896772858       -4.1565338173       -0.0228737193
 H         -1.8873176208       -2.7463748979        1.3059012312
 C         -1.4855466921       -3.7970284461       -0.5164403104
 C         -1.6261208920       -5.1722948468        0.0631143050
 C         -2.8163453543       -4.4852088839       -0.5337112395
 H         -3.2001842993       -4.8401564785       -1.4782197323
 H         -3.5785840104       -4.1061030004        0.1313356668
 H         -1.1952256105       -6.0042665356       -0.4728325510
 H         -1.5840620787       -5.2686645230        1.1374437062
 H         -0.9665854544       -3.6868153643       -1.4618757868
