  62
        -98.94150611
 C         -2.6500279597       -0.5926007292       -0.4784383300
 C         -1.7305562096        0.2807264409       -1.1106519398
 C         -1.9817547395        1.7181955308       -0.9314711195
 C         -3.0574145194        2.1234752908       -0.2340929393
 C         -3.3976810292        3.5527216607        0.0705979611
 C         -2.7912960690        3.9947346603        1.4098247512
 C         -1.3085646190        3.6536602701        1.5649952710
 H         -0.9843455589        4.0464432599        2.5314826210
 H         -1.1865731291        2.5681206401        1.6097022707
 C         -0.4049767991        4.2143935903        0.4581907410
 H         -0.9185738990        5.0209786005       -0.0673215687
 H          0.4870178410        4.6412708301        0.9213181910
 C          0.0765049107        3.1715576505       -0.5524781793
 H          0.4966036007        2.3161444103       -0.0143914796
 H          0.8826700307        3.6189974106       -1.1408716893
 C         -0.9874103994        2.6678411809       -1.5372686193
 H         -1.4949838294        3.5187160511       -1.9962724091
 H         -0.4774914096        2.1056965910       -2.3250171395
 H         -2.9291859989        5.0727701303        1.5118050115
 H         -3.3393980890        3.5039435002        2.2174454911
 H         -3.0309915692        4.1878462109       -0.7332911687
 H         -4.4837917392        3.6428040908        0.1274102113
 O         -3.9458108394        1.2577292007        0.3175173306
 C         -3.7436277596       -0.1089054793        0.2461470202
 O         -4.6032155796       -0.7842155093        0.8468412702
 H          0.2177612401       -2.0447967994       -1.0071152706
 C          0.0210415602       -2.2057576296        0.0408739894
 C         -1.2866897198       -2.3346784496        0.4835507095
 C         -1.5116850997       -2.5193985599        1.8445090194
 C         -0.4563943396       -2.5433501202        2.7390760893
 C          0.8420300304       -2.3504291203        2.2995706592
 C          1.0724289003       -2.1731962500        0.9431329993
 N          2.3829320903       -1.8823542700        0.4966692692
 S          2.9291264805       -0.4001299902        1.1223389295
 O          3.6890660106       -0.6790565306        2.3174957594
 O          1.8204872306        0.5120008199        1.2882097099
 C          4.0123520804        0.1641446000       -0.1752977604
 C          3.4427699204        0.7626210403       -1.2838133302
 C          4.2683389303        1.1753669705       -2.3176436502
 C          5.6385175503        0.9776508303       -2.2283743004
 C          6.1931392304        0.3714805800       -1.1112375806
 C          5.3742816304       -0.0416555602       -0.0719897306
 H          5.7570792705       -0.5131974804        0.8180175592
 H          7.2583666104        0.2190944499       -1.0469844407
 H          6.2768366503        1.2990488405       -3.0361665104
 H          3.8380073503        1.6454139108       -3.1873806600
 H          2.3718484704        0.8976910705       -1.3151699001
 H          2.4065654402       -1.8328839297       -0.5148160308
 H          1.6720193005       -2.2994882305        2.9869336092
 H         -0.6491264495       -2.6827142005        3.7924894693
 H         -2.5293248896       -2.6054927099        2.1998646095
 C         -2.4475676998       -2.1030130592       -0.4525074604
 H         -3.3520839398       -2.5238443092        0.0046669996
 C         -2.2688556000       -2.7062878089       -1.8288917005
 C         -2.3829979302       -4.1915859689       -1.9909353509
 C         -3.4562658902       -3.2943557486       -2.5277612306
 H         -3.5376872202       -3.1682020483       -3.5969006305
 H         -4.4050138201       -3.2658046186       -2.0119232105
 H         -2.6030617102       -4.7726468890       -1.1080995010
 H         -1.7277395303       -4.6860697787       -2.6913771511
 H         -1.5479202000       -2.1834395188       -2.4430719205
 O         -0.7463125497       -0.0961666991       -1.8003286900
