  62
        -98.94551261
 C         -2.2414235864       -0.9735872254        0.2063699265
 C         -1.5701798836       -0.2526594844       -0.8125807258
 C         -2.0064117775        1.1373329139       -1.0138883141
 C         -2.9441894312        1.6608053881       -0.2058129286
 C         -3.4701802056        3.0640428219       -0.2896864548
 C         -2.6788737659        4.0244591344        0.6075728686
 C         -1.1626152226        3.9359435288        0.4316005684
 H         -0.7162786920        4.6991192772        1.0740688883
 H         -0.8054923287        2.9700256251        0.7976974820
 C         -0.6747221340        4.1333523334       -1.0103394583
 H         -1.4485101238        4.6233909710       -1.6035454146
 H          0.1934304677        4.7957554712       -0.9945991691
 C         -0.2357069084        2.8404636207       -1.7002838950
 H          0.4289249888        2.2902230947       -1.0295019959
 H          0.3367921412        3.1047079296       -2.5936711494
 C         -1.3685330199        1.9031515058       -2.1387236432
 H         -2.1206194024        2.4683291001       -2.6942627360
 H         -0.9384351100        1.1520118572       -2.8077300847
 H         -3.0111670645        5.0430611049        0.3961739022
 H         -2.9148029434        3.8000376634        1.6506321975
 H         -3.4242320110        3.3988147305       -1.3244009033
 H         -4.5127506450        3.0572415782        0.0344964726
 O         -3.5114304249        0.9637204450        0.8132784535
 C         -3.1610181349       -0.3541185598        1.0545326303
 O         -3.7308702132       -0.8611896267        2.0438978227
 H         -0.2548105829       -1.0734145880        2.0756507405
 C          0.2995960760       -1.7377601199        1.4224502348
 C         -0.3949778672       -2.5610991797        0.5442125581
 C          0.3317274735       -3.4003288288       -0.2895860819
 C          1.7160049168       -3.3851860663       -0.2681120436
 C          2.4019167882       -2.5187241517        0.5642337343
 C          1.6815621949       -1.6914807656        1.4144678579
 N          2.3858758980       -0.7266806091        2.1966986116
 S          2.3101326016        0.7838299150        1.4369881233
 O          3.0367893109        1.6919649015        2.3005263625
 O          0.9427763168        1.1667794148        1.1570822881
 C          3.2210495228        0.4950975187       -0.0595016441
 C          4.5918596913        0.6648893440       -0.0247982099
 C          5.3289792876        0.4002344853       -1.1671130982
 C          4.6847910639       -0.0334802156       -2.3165695526
 C          3.3091442858       -0.2029327130       -2.3315620576
 C          2.5626578011        0.0605139369       -1.1927514157
 H          1.4913976911       -0.0746730898       -1.1792854031
 H          2.8042167518       -0.5454493376       -3.2204091108
 H          5.2579084550       -0.2417705023       -3.2064081716
 H          6.3992162099        0.5300349151       -1.1573723402
 H          5.0434106459        1.0058502636        0.8923762770
 H          1.9946362982       -0.6198231807        3.1241294323
 H          3.4784739169       -2.4656861057        0.5595769836
 H          2.2668159234       -4.0350485885       -0.9302592365
 H         -0.1872652332       -4.0390898945       -0.9852932625
 C         -1.8959867754       -2.4224897823        0.5202411589
 H         -2.2708699246       -2.5881229474        1.5442591119
 C         -2.5901141241       -3.4422434932       -0.3690156600
 C         -3.9350538572       -3.1517485221       -0.9636572838
 C         -2.7309221724       -3.2545777751       -1.8484051068
 H         -2.6386554736       -4.1225609999       -2.4846058103
 H         -2.3283761478       -2.3513903831       -2.2779164766
 H         -4.6663171762       -3.9456230602       -0.9899376634
 H         -4.3589668731       -2.1739224746       -0.7844659861
 H         -2.4314792007       -4.4571548166       -0.0174940762
 O         -0.6662793058       -0.7384064180       -1.5395383802
