  62
        -98.94498291
 C          2.0728356218        1.3369114774        0.0239239742
 C          2.6677008227        0.6752549325        1.1244185745
 C          3.8359316318       -0.1566265267        0.8167429973
 C          4.2733041991       -0.2491343045       -0.4525498465
 C          5.4637987021       -1.0406566858       -0.9220410494
 C          5.1641724580       -2.5235187573       -1.1814067707
 C          4.9508110248       -3.3730179270        0.0721852294
 H          5.7880644751       -3.2273395410        0.7554607920
 H          4.9652599545       -4.4183255571       -0.2427172222
 C          3.6309333765       -3.0980379748        0.8064374858
 H          3.1504422316       -4.0461030899        1.0596098705
 H          2.9491961332       -2.5633621149        0.1401603868
 C          3.7823446602       -2.3046764998        2.1046617953
 H          4.3564579679       -2.8902157893        2.8260759724
 H          2.7864104451       -2.1391128236        2.5239165154
 C          4.4588233613       -0.9378739149        1.9343760415
 H          5.5267754606       -1.0663974548        1.7606765640
 H          4.3192793768       -0.3691272900        2.8569487015
 H          6.0121440354       -2.9358212236       -1.7330663217
 H          4.2837052360       -2.5950614604       -1.8245026341
 H          6.2725229143       -0.9531835630       -0.1960111716
 H          5.7878413835       -0.5864450752       -1.8608359899
 O          3.6716325497        0.4001801807       -1.4838325619
 C          2.5452159686        1.1861332614       -1.2801871017
 O          2.0760652325        1.6864023073       -2.3190174380
 O          2.2389948560        0.7712599695        2.3064453954
 C          0.8477078752        2.2012046811        0.2639434523
 C         -0.3406177155        1.6057386404       -0.4508076805
 C         -1.1685141697        2.3243210527       -1.3020932566
 C         -2.2281129579        1.7009581629       -1.9399358672
 C         -2.4922783822        0.3598666906       -1.7355051999
 C         -1.6846441718       -0.3629008657       -0.8651350799
 C         -0.6252300187        0.2632256744       -0.2276120759
 H          0.0062834392       -0.3025422424        0.4463938730
 N         -1.9531612082       -1.7212102471       -0.6330770112
 S         -3.5439223555       -2.2019375384       -0.4467557384
 O         -3.4838388458       -3.3888825134        0.3772654880
 O         -4.1570117573       -2.3671337618       -1.7413126439
 C         -4.3439975168       -0.8709586893        0.4322333769
 C         -3.8408981715       -0.5087421185        1.6661471329
 C         -4.4354726327        0.5382835781        2.3510894351
 C         -5.5181057061        1.2017347357        1.7937997700
 C         -6.0151771561        0.8223140592        0.5568770058
 C         -5.4229310008       -0.2230058526       -0.1336989109
 H         -5.7747490959       -0.5485193393       -1.0991152930
 H         -6.8584006404        1.3382335026        0.1268617589
 H         -5.9762154947        2.0185605082        2.3287090359
 H         -4.0497195828        0.8339757493        3.3135837835
 H         -3.0003543824       -1.0462967969        2.0754920642
 H         -1.3500946823       -2.1531695871        0.0505882740
 H         -3.2988920083       -0.1426518388       -2.2440228147
 H         -2.8545076533        2.2678606271       -2.6113744783
 H         -0.9774090065        3.3695942317       -1.4786865268
 H          0.6587848690        2.1404737789        1.3461210169
 C          1.1252878730        3.6434141149       -0.1006860061
 C          0.3697936489        4.7480578717        0.5738930411
 C          1.8148731427        4.5216364330        0.8986192967
 H          2.5441804175        5.2335233261        0.5422040014
 H          2.0642809568        4.0851664849        1.8548668352
 H          0.1068790297        5.6209215517       -0.0041379323
 H         -0.3647436436        4.4707526749        1.3144854203
 H          1.3954819724        3.7661296455       -1.1432327608
