  62
        -98.94866171
 C          0.9923027911        1.7457930691        0.1060431788
 C          1.6414320717        0.9774299991        1.1010758885
 C          2.8175470811        0.2136766387        0.6644395677
 C          3.2051590901        0.2836281382       -0.6221688126
 C          4.3736449994       -0.4563949523       -1.2053050533
 C          3.9575597085       -1.8204444823       -1.7715423526
 C          3.1275948190       -2.6700372318       -0.8088011118
 H          2.1479498693       -2.2039068515       -0.6762237911
 H          2.9453154383       -3.6284257819       -1.3011437814
 C          3.7850346401       -2.9139737117        0.5567995278
 H          3.6541000400       -3.9656413415        0.8207976082
 H          4.8577224601       -2.7279166520        0.4877861869
 C          3.1985477812       -2.0918323712        1.7055033380
 H          3.5708822119       -2.5089892210        2.6451099878
 H          2.1113422612       -2.2020895408        1.7075256289
 C          3.5412650317       -0.5967327213        1.7033609174
 H          3.2345543926       -0.1837687309        2.6690803275
 H          4.6214473916       -0.4698452516        1.6039639165
 H          4.8613069481       -2.3648750227       -2.0536440632
 H          3.3621285778       -1.6569800324       -2.6730980322
 H          5.1321486400       -0.5885149523       -0.4354841339
 H          4.7907220689        0.1477040874       -2.0132933538
 O          2.5582887396        1.0321055982       -1.5514268023
 C          1.4291887400        1.7685333786       -1.2191239516
 O          0.9261605095        2.3937986985       -2.1720634313
 O          1.2587092326        0.9365336796        2.3021163988
 C         -0.2351753083        2.5449658195        0.4927824896
 C         -1.4831572890        2.0604474897       -0.2084617293
 C         -2.6210541689        2.8547061701       -0.3117982686
 C         -3.7639435495        2.3665161202       -0.9194645075
 C         -3.8092225403        1.0776763501       -1.4210988071
 C         -2.6779461505        0.2763029698       -1.3242657578
 C         -1.5327937099        0.7741660096       -0.7222052089
 H         -0.6541036600        0.1516655394       -0.6870489794
 N         -2.6697406213       -1.0301988403       -1.8289700875
 S         -1.6986097111       -2.2113413004       -1.1625656680
 O         -0.3143853313       -1.9797785010       -1.4901716492
 O         -2.2670768619       -3.4480309504       -1.6554855272
 C         -1.9565503897       -2.0925857199        0.5974895522
 C         -3.1921527194       -2.4519274994        1.1005410833
 C         -3.4247297682       -2.3250568390        2.4600360234
 C         -2.4276877474       -1.8330779790        3.2898543025
 C         -1.1914819777       -1.4810836196        2.7717575414
 C         -0.9528107689       -1.6164758200        1.4138695213
 H         -0.0006647591       -1.3466689604        0.9841127604
 H         -0.4107885171       -1.0816879196        3.4000964207
 H         -2.6126791865       -1.7241172087        4.3468325126
 H         -4.3827331380       -2.6036694386        2.8684945143
 H         -3.9396572700       -2.8362450293        0.4258437740
 H         -3.5610437016       -1.3865772201       -2.1380948467
 H         -4.7024059808        0.6984123203       -1.8928980563
 H         -4.6368314594        2.9963748105       -0.9984071670
 H         -2.6071636483        3.8590604702        0.0792807211
 H         -0.3700109975        2.3627710699        1.5707988897
 C          0.0038193219        4.0285462994        0.2809172890
 C         -0.5278678770        5.0383067798        1.2526561092
 C          0.9409132329        4.7480202294        1.2033523080
 H          1.6059833328        5.4900616191        0.7878934573
 H          1.3762625334        4.1751430995        2.0093294778
 H         -0.8737419870        5.9869912598        0.8704933792
 H         -1.0810837964        4.6740885202        2.1052596097
 H          0.0363110912        4.2958985491       -0.7692405311
