  62
        -98.93177267
 C          1.3624765840       -0.2438417880       -0.6126607189
 C          2.3604613930       -0.9169827210        0.1309230512
 C          3.4610574583       -0.0785637242        0.6319586942
 C          3.4437738674        1.2483220736        0.4156811543
 C          4.4552142334        2.2533739488        0.9003733172
 C          5.8764817056        2.1232450664        0.3192565304
 C          6.8391316678        1.2964569318        1.1807305026
 H          7.8188529072        1.7786550895        1.1737281728
 H          6.4896021133        1.3141422796        2.2138260807
 C          7.0528254774       -0.1543917552        0.7384309500
 H          7.7334946623       -0.1700306053       -0.1159176303
 H          7.5429571659       -0.6847414350        1.5578771999
 C          5.7938157661       -0.9219587578        0.3345539751
 H          6.0547458720       -1.9778893207        0.2393824819
 H          5.4662876242       -0.5947834104       -0.6550966337
 C          4.6079894231       -0.7722858753        1.3074783483
 H          4.2433768565       -1.7575009761        1.6054567946
 H          4.9103595304       -0.2329335065        2.2039296717
 H          5.8211239425        1.7149178676       -0.6894641668
 H          6.2778539113        3.1345832487        0.2368294486
 H          4.0477447492        3.2294129400        0.6292437406
 H          4.5039916415        2.2040107546        1.9906221896
 O          2.4360716116        1.8633597960       -0.2621591470
 C          1.3823303653        1.1405633833       -0.7955350035
 O          0.5377513314        1.8316581216       -1.3974271851
 H         -1.3702359127        0.5344729246        0.2941475603
 C         -1.4506894162       -0.4974527061        0.6031832392
 C         -0.6990005921       -1.4607402744       -0.0597829329
 C         -0.7734931523       -2.7775555048        0.3732945266
 C         -1.5727871149       -3.1138931898        1.4528545084
 C         -2.3397490351       -2.1564820995        2.0921310478
 C         -2.2844559826       -0.8392698554        1.6551559814
 N         -3.0935018530        0.1779740427        2.2262314341
 S         -4.4804416142        0.4857547140        1.3143821849
 O         -5.1965368570        1.5188405670        2.0282331946
 O         -5.2171294197       -0.7436551766        1.1005887605
 C         -3.8731598255        1.0973066328       -0.2377774919
 C         -3.7744602474        0.2280536851       -1.3062322906
 C         -3.2550126734        0.6969350473       -2.5016169563
 C         -2.8469879239        2.0177266868       -2.6068073936
 C         -2.9621206805        2.8791920337       -1.5270190344
 C         -3.4776906327        2.4168250205       -0.3271809297
 H         -3.5789378095        3.0508790909        0.5386514000
 H         -2.6382133807        3.9035064248       -1.6149627930
 H         -2.4294995118        2.3777594827       -3.5336583172
 H         -3.1624376681        0.0307301487       -3.3449094351
 H         -4.0987704050       -0.7924324813       -1.1790015385
 H         -3.3868110477       -0.0377801034        3.1707749872
 H         -2.9829402722       -2.4228922966        2.9179244381
 H         -1.6087672002       -4.1382159200        1.7920560967
 H         -0.1889539424       -3.5366630700       -0.1190346563
 C          0.1777700483       -0.9965283483       -1.1963516175
 H         -0.3933709526       -0.2542507213       -1.7709781913
 C          0.6129344615       -2.1049750359       -2.1299369309
 C         -0.3894726754       -2.6946465107       -3.0747572104
 C          0.7098989567       -1.8210215555       -3.5974188140
 H          1.5103290838       -2.2796233055       -4.1584870765
 H          0.4592437660       -0.8243557871       -3.9300201115
 H         -0.3459486277       -3.7532608514       -3.2802338869
 H         -1.3907056682       -2.2920345917       -3.0488054750
 H          1.3583963695       -2.7617583730       -1.6995420058
 O          2.3454973914       -2.1519863165        0.3716600650
