  62
        -98.93978182
 C          1.7427997741        1.3150291172        0.4863411185
 C          1.5498067193        0.2476959635       -0.4266673314
 C          2.7684567814       -0.2771629387       -1.0669310824
 C          3.9629688004        0.2623546235       -0.7680005877
 C          5.2813646040       -0.2125319822       -1.3047664930
 C          5.9063087368       -1.2681095014       -0.3819819684
 C          4.9452798242       -2.3893134389        0.0140487456
 H          4.1463718194       -1.9750530409        0.6337824720
 H          5.5031990042       -3.0909134305        0.6380472260
 C          4.3249292246       -3.1421028669       -1.1712911435
 H          4.3652612225       -4.2138161349       -0.9653138294
 H          4.9126367731       -2.9633233599       -2.0725351639
 C          2.8596566271       -2.7980327019       -1.4464015918
 H          2.2788247730       -2.8902986399       -0.5244121060
 H          2.4642037093       -3.5339941348       -2.1519855019
 C          2.5994343171       -1.4085694061       -2.0415656086
 H          1.5530154380       -1.3798395346       -2.3598058338
 H          3.2309286967       -1.2601907595       -2.9201280436
 H          6.2478404963       -0.7727561306        0.5298577341
 H          6.7770552110       -1.6939125112       -0.8837724397
 H          5.1354157035       -0.6258963017       -2.3007331901
 H          5.9548563904        0.6436290701       -1.3708043324
 O          4.1096871610        1.2845919902        0.1125356267
 C          3.0158837893        1.8157852492        0.7752655860
 O          3.3029675334        2.7186189531        1.5865516942
 H         -1.8999841307        0.9213819440        0.6108735795
 C         -1.4713535567        0.4588347110        1.4845908713
 C         -0.2171390706        0.8465723375        1.9314891326
 C          0.3239332809        0.2114489472        3.0462491065
 C         -0.3776984108       -0.7761918693        3.7094635364
 C         -1.6317633662       -1.1549301122        3.2645130609
 C         -2.1746127234       -0.5419249104        2.1426488124
 N         -3.4551301739       -0.9054504911        1.6749835278
 S         -3.5498296922       -1.6396934991        0.1597327546
 O         -4.8083297598       -2.3594230127        0.1985267926
 O         -2.3799388756       -2.4415812761       -0.1099243970
 C         -3.7067210615       -0.3016762533       -1.0002712358
 C         -4.9183938660        0.3601903939       -1.0540841606
 C         -5.0833226743        1.3805974131       -1.9758964212
 C         -4.0420758889        1.7109932199       -2.8307991441
 C         -2.8332754814        1.0357619613       -2.7622697866
 C         -2.6557778366        0.0199092050       -1.8346425154
 H         -1.7194962357       -0.5050874838       -1.7289719537
 H         -2.0220552718        1.2961006470       -3.4237600620
 H         -4.1715132719        2.5004206574       -3.5547194479
 H         -6.0204821961        1.9108868224       -2.0297372475
 H         -5.7055870569        0.0553229440       -0.3847619968
 H         -3.9660787562       -1.4789726399        2.3332395304
 H         -2.1861338456       -1.9275221747        3.7771641807
 H          0.0529512348       -1.2557753305        4.5757949433
 H          1.3072716718        0.5068256775        3.3876656710
 C          0.5919372150        1.9315007545        1.2652562566
 H          1.0797223766        2.5125583060        2.0650510350
 C         -0.2579278567        2.9191196801        0.4808618300
 C          0.3978565985        3.9136487127       -0.4300098237
 C         -0.4727141303        2.8354494353       -0.9980121749
 H         -1.4435371091        3.1103048062       -1.3833543339
 H         -0.0056515482        2.0233796300       -1.5307803193
 H          1.4672423866        3.8318997861       -0.5623848029
 H          0.0334161415        4.9296686638       -0.4335148156
 H         -1.0916838884        3.2849155264        1.0724207449
 O          0.4298956671       -0.2461186870       -0.7121308254
