  62
        -98.94413297
 C         -2.6443362554       -1.2911943937        0.1713934598
 C         -2.6253639390       -0.2765030876       -0.8154891914
 C         -3.7648390869        0.6529667025       -0.7973682523
 C         -4.7446370846        0.4805021446        0.1085655401
 C         -5.9345306618        1.3807487194        0.2692308003
 C         -5.6538366567        2.4931900822        1.2890649888
 C         -4.3337050550        3.2274028254        1.0537318422
 H         -4.2562113791        4.0091621014        1.8124068558
 H         -3.5041133566        2.5360132830        1.2198784073
 C         -4.1962196168        3.8541324343       -0.3408090993
 H         -3.7969540551        4.8647822551       -0.2326948249
 H         -5.1785702922        3.9419087881       -0.8063810367
 C         -3.2543708464        3.1038570354       -1.2848349604
 H         -2.2950977698        2.9321233392       -0.7886619960
 H         -3.0617242352        3.7426804387       -2.1511613196
 C         -3.7704417462        1.7595769409       -1.8140041224
 H         -4.7677314607        1.8897624199       -2.2392764140
 H         -3.0952538633        1.4369933613       -2.6122047931
 H         -5.6250392272        2.0491384403        2.2866669885
 H         -6.4792067366        3.2066467414        1.2579957061
 H         -6.7746339151        0.7801601628        0.6219033393
 H         -6.1894366588        1.8135545486       -0.6960308877
 O         -4.7375095431       -0.5196953254        1.0260585429
 C         -3.6835165538       -1.4146735089        1.0946882579
 O         -3.7860704398       -2.2627413822        2.0034942108
 O         -1.7109874171       -0.1518261276       -1.6729346862
 C         -1.5024563136       -2.2892146023        0.2680761130
 C         -0.2245507082       -1.5384118246        0.5524792388
 C         -0.1157786807       -0.8473381116        1.7572401642
 C          1.0180181531       -0.1160816618        2.0516145291
 C          2.0680608014       -0.0531090722        1.1507497977
 C          1.9637975481       -0.7255199965       -0.0581077569
 C          0.8272559638       -1.4737375009       -0.3450300182
 H          0.7612167717       -1.9877470939       -1.2907733825
 N          3.0222012723       -0.6799729276       -0.9772424043
 S          3.8643744621        0.7475414795       -1.2216202473
 O          3.0355848792        1.9123371928       -1.0165231288
 O          4.4615068967        0.6049514867       -2.5317275346
 C          5.1526828484        0.6880020929        0.0079746318
 C          5.9213124169       -0.4562601202        0.0950277316
 C          6.9337610881       -0.5123143721        1.0393501982
 C          7.1626981208        0.5717349012        1.8736595562
 C          6.3857387274        1.7152167897        1.7708058792
 C          5.3702968907        1.7769358276        0.8290487900
 H          4.7374066425        2.6432732815        0.7178113108
 H          6.5652856844        2.5577420800        2.4192424657
 H          7.9510640235        0.5253269594        2.6082694540
 H          7.5398781723       -1.4000277882        1.1224534948
 H          5.7141424919       -1.2759047823       -0.5723009857
 H          2.8260247808       -1.1436975279       -1.8522222513
 H          2.9499304875        0.5260906828        1.3695361108
 H          1.0879927586        0.4129710364        2.9900751181
 H         -0.9412148487       -0.8882111902        2.4554943550
 H         -1.7266043772       -2.9213268544        1.1385570672
 C         -1.4495037642       -3.1637450092       -0.9664191875
 C         -0.7520506680       -4.4888122577       -0.9104590763
 C         -2.2472635465       -4.4313027114       -0.9919811486
 H         -2.7263412959       -4.7192380233       -1.9157937930
 H         -2.8204410823       -4.6754566650       -0.1094622206
 H         -0.2044903275       -4.8223166569       -1.7789992199
 H         -0.3069060625       -4.7773908729        0.0295563025
 H         -1.3959376815       -2.5935859681       -1.8866418483
