  62
        -98.94184436
 C          2.2572474901        0.7225896005        0.1267430090
 C          3.4377327504        1.0087567508        0.8628103584
 C          4.3853586104       -0.0977323892        1.0292544586
 C          4.0749088601       -1.3161893794        0.5524018993
 C          4.9239097400       -2.5534782794        0.6623322096
 C          6.0006735796       -2.6689325500       -0.4256093107
 C          7.1804627498       -1.7069401800       -0.2787878516
 H          7.9549130895       -2.0424016304       -0.9713938617
 H          7.5886547601       -1.7865138095        0.7291728383
 C          6.8449965097       -0.2408038101       -0.5864001322
 H          5.9045643495       -0.1916020704       -1.1405127119
 H          7.6180521895        0.1821996195       -1.2318447727
 C          6.7419106603        0.6574747405        0.6463858074
 H          6.4663482502        1.6625558703        0.3166011070
 H          7.7158989105        0.7198801106        1.1364328170
 C          5.7042949506        0.1955474111        1.6780450080
 H          5.5489979909        1.0048111014        2.3956179576
 H          6.0688880607       -0.6814005787        2.2123627583
 H          5.5292646293       -2.5223438405       -1.4003346806
 H          6.3863119696       -3.6905946200       -0.3943068903
 H          4.2458506199       -3.4045986894        0.5684354603
 H          5.3930806904       -2.5899169489        1.6459746495
 O          2.9040975498       -1.5697800596       -0.0876835601
 C          1.9769969598       -0.5630583997       -0.3403541703
 O          0.9802669095       -0.9586868499       -0.9741386597
 O          3.6868727206        2.1390295511        1.3588859578
 C          1.2811489001        1.8687190905       -0.0788727312
 C         -0.1051275698        1.4484946308        0.3338288095
 C         -0.4362240193        1.4208686215        1.6853145696
 C         -1.6855739992        0.9964524518        2.0961784003
 C         -2.6263668495        0.5809037514        1.1698543809
 C         -2.2975274600        0.5840168007       -0.1785610192
 C         -1.0505732502        1.0361323204       -0.5908228999
 H         -0.8001317806        1.0235745099       -1.6401487400
 N         -3.2390377104        0.1568014403       -1.1286488687
 S         -4.1714511604       -1.2000292895       -0.8097627577
 O         -3.4957305602       -2.1444191691        0.0490561426
 O         -4.5776681209       -1.6874806101       -2.1104607273
 C         -5.6009664801       -0.5343564189        0.0218546725
 C         -6.2766789102        0.5116960608       -0.5756643977
 C         -7.3973476799        1.0308508212        0.0525056324
 C         -7.8241616595        0.4964087118        1.2590864928
 C         -7.1377520294       -0.5562128679        1.8444421131
 C         -6.0153199696       -1.0794474583        1.2212796830
 H         -5.4473146895       -1.8943514381        1.6417685632
 H         -7.4706857891       -0.9713476374        2.7821790234
 H         -8.6967313093        0.9023444221        1.7460703030
 H         -7.9335742400        1.8495061210       -0.3998045478
 H         -5.9148301905        0.8964287103       -1.5143181781
 H         -2.8728274908        0.1246395198       -2.0692486688
 H         -3.5967705595        0.2336252516        1.4844583814
 H         -1.9306711588        0.9841039223        3.1473931104
 H          0.3041542610        1.7271887618        2.4115036092
 H          1.6255101704        2.6432430808        0.6253933383
 C          1.3249793796        2.4969464898       -1.4642441515
 C          2.6332906794        2.6785382494       -2.1726792721
 C          1.6154032891        1.7214244592       -2.7127275413
 H          1.0864685888        1.9935495788       -3.6149570312
 H          1.8007101291        0.6625159992       -2.6223785808
 H          2.8104958992        3.6002014491       -2.7059067726
 H          3.5140121195        2.2707159495       -1.6979792322
 H          0.6093146796        3.3084466298       -1.5566165817
