  62
        -98.94526124
 C         -1.4853406699        0.7928542815        0.5346192543
 C         -2.6228282963        1.0257216822       -0.2823143804
 C         -3.3675750287       -0.1570782198       -0.7286380278
 C         -2.9247827520       -1.3782368527       -0.3789338679
 C         -3.6010738456       -2.6712433838       -0.7304180428
 C         -4.5991839395       -3.0923342135        0.3572807040
 C         -5.5551743638       -1.9772249347        0.7810280123
 H         -4.9830979069       -1.1857013602        1.2702876199
 H         -6.2316654991       -2.3955527128        1.5293486232
 C         -6.3740106855       -1.3727278837       -0.3680877427
 H         -7.4123419782       -1.2746792939       -0.0445173094
 H         -6.3639708480       -2.0472087126       -1.2250401650
 C         -5.9130968561        0.0166211553       -0.8127837357
 H         -5.8299716219        0.6713250577        0.0582713127
 H         -6.6822051876        0.4369787992       -1.4661869899
 C         -4.5856938575        0.0664349161       -1.5802427947
 H         -4.4787880102        1.0725519458       -1.9964336233
 H         -4.6114294107       -0.6453085197       -2.4083024724
 H         -4.0365748023       -3.4143168491        1.2365381297
 H         -5.1714825700       -3.9456077266       -0.0114083233
 H         -2.8343616845       -3.4417648500       -0.8304104109
 H         -4.1122157276       -2.5581811194       -1.6847296200
 O         -1.8243130833       -1.5678568722        0.3870242767
 C         -1.0743005238       -0.4997789917        0.8596199643
 O         -0.1026588444       -0.8545230395        1.5550220859
 O         -3.0021898553        2.1810164742       -0.6169174409
 C         -0.7125568252        2.0274579122        0.9706228649
 C          0.3600175621        2.3397838194       -0.0471960103
 C          0.3552013188        3.5477530039       -0.7334378722
 C          1.3121992806        3.8105934505       -1.6974613785
 C          2.2736912120        2.8668430369       -2.0054462555
 C          2.2885695010        1.6532557717       -1.3233165377
 C          1.3503723156        1.4089340806       -0.3318846037
 H          1.3604804206        0.4668402564        0.1898126214
 N          3.2602953166        0.6921079331       -1.6253965483
 S          2.9927545471       -0.9603966246       -1.5236433124
 O          3.8103141652       -1.5117572820       -2.5868767484
 O          1.5875313053       -1.2840425053       -1.5726413429
 C          3.7412909243       -1.3986988756        0.0313637409
 C          2.9747219594       -1.6967335273        1.1383863482
 C          3.6165915948       -2.0148614155        2.3268861498
 C          5.0005964242       -2.0306996882        2.3882259470
 C          5.7566648761       -1.7309999483        1.2643360840
 C          5.1234072367       -1.4117561555        0.0754901126
 H          5.6707289695       -1.1864426809       -0.8247024928
 H          6.8335603242       -1.7456559023        1.3126669352
 H          5.4914617938       -2.2794719821        3.3160357312
 H          3.0222193769       -2.2452700688        3.1968166214
 H          1.8974799211       -1.6712022406        1.0745861998
 H          3.8494568204        0.9211021843       -2.4121422701
 H          3.0070039585        3.0600402353       -2.7737679477
 H          1.2989152781        4.7515771784       -2.2262921892
 H         -0.4183129101        4.2717776521       -0.5241661989
 H         -1.4423041194        2.8487263292        0.9419176883
 C         -0.1321420700        1.9538029119        2.3677406149
 C          0.1671631741        3.2298083854        3.0942557359
 C         -0.9751961247        2.3659132415        3.5355103243
 H         -0.8820846666        1.8117442375        4.4571819476
 H         -1.9803264821        2.7056454447        3.3313311911
 H          1.0489545019        3.2726602685        3.7145176859
 H         -0.0644513663        4.1575883056        2.5934310394
 H          0.5429726732        1.1213975043        2.5128871431
