  62
        -98.93342570
 C         -2.4444967765       -1.0306026125        0.4929813605
 C         -2.3588259350        0.2701775737       -0.0580625157
 C         -3.5172088823        1.1563257146        0.1776838418
 C         -4.5517199121        0.7094219328        0.9087862005
 C         -5.8390226097        1.4245711367        1.2125467734
 C         -6.9198944588        1.0582751791        0.1812841908
 C         -6.9295528756        1.9249990618       -1.0773371973
 H         -7.6467477538        1.4812721436       -1.7717797334
 H         -7.2944939620        2.9222823865       -0.8228831175
 C         -5.5802216546        2.0648452465       -1.7869570269
 H         -5.0814482479        1.0945791467       -1.8237297099
 H         -5.7745181440        2.3665261801       -2.8180974747
 C         -4.6577657462        3.1032485532       -1.1311581077
 H         -5.2372456345        3.6977160183       -0.4250174088
 H         -4.2947096819        3.7958833549       -1.8933073834
 C         -3.4179652347        2.5297777234       -0.4284349669
 H         -2.5939630491        2.4565859950       -1.1452524471
 H         -3.0919404439        3.2296159440        0.3481687638
 H         -6.7786848432        0.0098480139       -0.0942854400
 H         -7.8997076330        1.1408850833        0.6560050561
 H         -6.1636755529        1.0761751417        2.1952548202
 H         -5.6833449501        2.4983936843        1.2552237452
 O         -4.5768958385       -0.5388340874        1.4529731213
 C         -3.5361266804       -1.4284925722        1.2692213896
 O         -3.6918949778       -2.5248552305        1.8434086293
 H          0.7748580471       -1.5242102065       -1.3776235313
 C          0.9722294232       -1.2182594045       -0.3618887437
 C          0.0060186964       -1.4015314071        0.6135307296
 C          0.2796925398       -0.9725665824        1.9094055927
 C          1.4839534986       -0.3685701828        2.2147764598
 C          2.4422760358       -0.1773049031        1.2347173280
 C          2.1808881543       -0.6030633603       -0.0597555870
 N          3.1389913408       -0.3936080698       -1.0636800332
 S          4.7398629957       -0.7840094546       -0.7685103639
 O          5.3165150477       -1.0271155283       -2.0730970692
 O          4.8546427724       -1.8562421943        0.1930166228
 C          5.4339851603        0.7135027178       -0.1006306624
 C          5.3056821253        1.8748077180       -0.8369902064
 C          5.8488503791        3.0474490289       -0.3372617035
 C          6.5095497678        3.0388944889        0.8822543150
 C          6.6328283186        1.8641349303        1.6080297938
 C          6.0910228565        0.6877151752        1.1137601283
 H          6.1585908801       -0.2480109009        1.6457530456
 H          7.1472023671        1.8596224846        2.5556217683
 H          6.9310651773        3.9533367757        1.2688917094
 H          5.7547141825        3.9630192541       -0.8987778549
 H          4.7873711928        1.8398189514       -1.7807317075
 H          2.8450002806       -0.6861570632       -1.9836040135
 H          3.3821315376        0.2977513528        1.4640566096
 H          1.6787617459       -0.0389978365        3.2242153739
 H         -0.4722497759       -1.1143594027        2.6743901239
 C         -1.3276655727       -2.0487588861        0.3335599124
 H         -1.5099091028       -2.7922802966        1.1270622750
 C         -1.3615315519       -2.8110310041       -0.9829794543
 C         -2.6657882545       -3.1331355042       -1.6476991805
 C         -1.7191299481       -2.1637158081       -2.2858472610
 H         -1.1904545310       -2.4773555712       -3.1747031838
 H         -1.9666607787       -1.1143036281       -2.2734994460
 H         -2.7873540294       -4.1080758462       -2.0952923920
 H         -3.5659686458       -2.7476183088       -1.1912585388
 H         -0.6017052583       -3.5867673338       -1.0167168392
 O         -1.3776685081        0.6871304913       -0.7256812348
