  62
        -98.94465232
 C          1.9802433948        0.7710700976        0.5674782910
 C          1.9832777896        0.0789591172       -0.6673236813
 C          2.1125705996       -1.3796128531       -0.5786283582
 C          2.1510998625       -1.9754703689        0.6265096499
 C          2.2400492336       -3.4563415834        0.8799740801
 C          3.6685689208       -4.0161940935        0.8281588749
 C          4.2830114407       -4.1058457621       -0.5692937176
 H          3.5980454530       -4.6360061269       -1.2315290842
 H          5.1878648257       -4.7104453148       -0.4822663968
 C          4.6526522381       -2.7500305241       -1.1867731719
 H          5.6532680809       -2.8080763235       -1.6207489756
 H          4.6859196702       -1.9899030684       -0.4029580458
 C          3.7065993203       -2.2778987680       -2.2909316213
 H          3.7601449226       -2.9645677327       -3.1385163629
 H          4.0400717888       -1.2944040187       -2.6311454838
 C          2.2404724901       -2.1543744980       -1.8549941833
 H          1.7924789324       -3.1419888218       -1.7457697051
 H          1.6921083494       -1.6076635981       -2.6261563928
 H          3.6387354505       -5.0215779087        1.2543612010
 H          4.3058944515       -3.4020091309        1.4683717866
 H          1.6104009043       -3.9856174693        0.1639249748
 H          1.8387423264       -3.6227447035        1.8822466534
 O          2.0956198806       -1.2770073137        1.7933174491
 C          2.0189718131        0.1063771398        1.7913594131
 O          1.9946568647        0.6220563133        2.9294184507
 O          1.8893875263        0.6491707887       -1.7860426463
 C          1.8346209490        2.2821307264        0.5830801961
 C          0.5458674900        2.6607617783       -0.1068492967
 C          0.4410599254        3.6912840222       -1.0315483053
 C         -0.7692047073        3.9525937651       -1.6510567873
 C         -1.8891674637        3.1921746050       -1.3717051057
 C         -1.7989672356        2.1723683471       -0.4299592604
 C         -0.5935195312        1.9295840882        0.2052106085
 H         -0.5334473225        1.1328298217        0.9338397874
 N         -2.9231918223        1.3959251025       -0.0962139269
 S         -2.6825053979       -0.2208488657        0.3287060276
 O         -2.3153939702       -0.2851334960        1.7224569143
 O         -1.7860313763       -0.8649956038       -0.6047319718
 C         -4.3428397111       -0.8404109807        0.1239940315
 C         -5.2717374776       -0.5762571604        1.1130399345
 C         -6.5738380228       -1.0196087336        0.9449329100
 C         -6.9238698403       -1.7156261582       -0.2028161278
 C         -5.9804143225       -1.9754680759       -1.1853065556
 C         -4.6764195782       -1.5331664813       -1.0242158047
 H         -3.9067374838       -1.7159803304       -1.7569838746
 H         -6.2541249327       -2.5194406147       -2.0749144844
 H         -7.9378298986       -2.0599659052       -0.3310441604
 H         -7.3090913907       -0.8215230850        1.7080018931
 H         -4.9493277178       -0.0402531322        1.9904381562
 H         -3.6759589239        1.4922105873       -0.7646930940
 H         -2.8253481156        3.3827525634       -1.8738950627
 H         -0.8360353272        4.7501030319       -2.3754858720
 H          1.3093787307        4.2798338002       -1.2785359876
 H          1.7552055241        2.5707169830        1.6420602739
 C          3.0601239725        2.9401447739       -0.0158566801
 C          3.4899526034        4.2999209495        0.4439938715
 C          4.2854267827        3.0911517193        0.8328890346
 H          5.2514577657        2.9373218737        0.3760724592
 H          4.2244377500        2.7418378127        1.8536933674
 H          3.9150337650        4.9787046836       -0.2798265354
 H          2.8956296998        4.7801876045        1.2065461963
 H          3.2016533782        2.6796059276       -1.0584476521
