  62
        -98.93922033
 C          2.1315125211        1.0075223305       -0.1041285398
 C          2.9477782308        0.5463597398        0.9598961902
 C          3.6971868707       -0.7025554602        0.7433468297
 C          3.5713825608       -1.3474029196       -0.4312204707
 C          4.1584123907       -2.6531564794       -0.9256693413
 C          5.2762123704       -3.3478274200       -0.1529184714
 C          6.6181484406       -2.6159085502       -0.1788505507
 H          7.3031162703       -3.1320175206        0.4971254791
 H          7.0305179308       -2.6867832497       -1.1884916107
 C          6.5698477607       -1.1365266203        0.1945695500
 H          5.9458514709       -0.5979225399       -0.5214534498
 H          7.5831388308       -0.7359576205        0.1043864004
 C          6.0763143205       -0.8352848610        1.6078666501
 H          6.2313301106        0.2313210289        1.7909936507
 H          6.6757701702       -1.3895473115        2.3325919699
 C          4.5914374204       -1.1384551809        1.8686763996
 H          4.4369014002       -2.1905358410        2.0959150690
 H          4.2784752103       -0.5649122113        2.7459702699
 H          4.9619649702       -3.5396356705        0.8687982384
 H          5.4226297704       -4.3224571097       -0.6263999419
 H          3.3101275906       -3.3423597092       -1.0063448618
 H          4.4952697909       -2.4618377689       -1.9496944111
 O          2.7688983411       -0.8692100489       -1.4258366906
 C          2.0328746312        0.2968665011       -1.2983820501
 O          1.3623931215        0.5695070718       -2.3153769601
 O          3.0450227107        1.1568528492        2.0574925805
 C          1.3353252812        2.2803818805        0.1404519708
 C         -0.0883804289        1.9072271405        0.4766584903
 C         -0.5392987691        1.9497875199        1.7912897802
 C         -1.8218709493        1.5405994399        2.1109230297
 C         -2.6763298691        1.0708529806        1.1292754693
 C         -2.2301936789        1.0130410612       -0.1842130506
 C         -0.9530669388        1.4455078912       -0.5059289401
 H         -0.6078286686        1.3730894217       -1.5264360001
 N         -3.0833168788        0.4951054018       -1.1837764911
 S         -3.5060471690       -1.1232006182       -0.9798370720
 O         -2.4834363493       -1.8513426487       -0.2618127622
 O         -3.8350025389       -1.6081695974       -2.3027785123
 C         -4.9960965592       -1.0459201285       -0.0070030223
 C         -5.0440020096       -1.6578988591        1.2301495674
 C         -6.2154074797       -1.5857340693        1.9681576172
 C         -7.3117458195       -0.9071728089        1.4581891273
 C         -7.2480410292       -0.3000233582        0.2126277077
 C         -6.0805674590       -0.3691625180       -0.5306420721
 H         -5.9887182788        0.0834990725       -1.5037018019
 H         -8.1028018490        0.2263260921       -0.1804644922
 H         -8.2213371596       -0.8516318991        2.0351013372
 H         -6.2665238100       -2.0574283598        2.9363422069
 H         -4.1636802197       -2.1682744694        1.5871358873
 H         -2.7027841986        0.6179027123       -2.1128668809
 H         -3.6735079392        0.7412609206        1.3716718989
 H         -2.1578881695        1.5815697194        3.1357365197
 H          0.1346787408        2.2858830894        2.5659661105
 H          1.7840875111        2.7316863899        1.0352298211
 C          1.4225329416        3.2775846211       -0.9964052687
 C          1.0549714918        4.7067464310       -0.7354942580
 C          2.4873730518        4.3310378509       -0.9643753679
 H          2.9559839220        4.6165512913       -1.8942343077
 H          3.1586627616        4.3375303503       -0.1180783178
 H          0.5369205720        5.2539695115       -1.5079103178
 H          0.7542872216        4.9685246105        0.2675738520
 H          1.1720273418        2.8598191316       -1.9626910990
