  62
        -98.94049719
 C          2.3468150276        0.8100925725       -0.1797374401
 C          3.5858454343        1.1326271687        0.4246554482
 C          4.7672334706        0.4819859528       -0.1519284293
 C          4.6261429909       -0.3440966317       -1.2047147354
 C          5.7375159287       -1.0636093840       -1.9199837762
 C          6.1534912734       -2.3841368292       -1.2573462985
 C          6.9353157489       -2.2381132134        0.0487042301
 H          7.3470171391       -3.2208113295        0.2870723796
 H          7.7762645410       -1.5615931440       -0.1064623946
 C          6.0949960203       -1.7536453344        1.2384986929
 H          5.0341553878       -1.8856714877        1.0128238044
 H          6.3144216457       -2.3688119034        2.1140737830
 C          6.3389474047       -0.2976058079        1.6355233271
 H          7.3656813208       -0.1810361562        1.9892221637
 H          5.6680573611       -0.0506073482        2.4623053435
 C          6.0928679445        0.7141701208        0.5084425871
 H          6.0761657189        1.7161247264        0.9440668865
 H          6.8975058649        0.6642778831       -0.2246084561
 H          5.2570908674       -2.9831558289       -1.0810184281
 H          6.7789370561       -2.9240167370       -1.9719732513
 H          5.3682967271       -1.2835561504       -2.9239257862
 H          6.6044711828       -0.4078234808       -2.0041156570
 O          3.4185327349       -0.6140819880       -1.7685506105
 C          2.2488832207       -0.0675421163       -1.2592794737
 O          1.2155424199       -0.4318522195       -1.8519843093
 O          3.6978181142        1.9233471242        1.3996417423
 C          1.0780771717        1.4293604425        0.3782900942
 C          0.1542164825        0.3430385692        0.8702295406
 C          0.6235751542       -0.5405758544        1.8401237571
 C         -0.1798057955       -1.5564112975        2.3186720585
 C         -1.4720510701       -1.7089471577        1.8467517637
 C         -1.9482220812       -0.8368512875        0.8754602197
 C         -1.1377145866        0.1844797508        0.3972606561
 H         -1.5339132134        0.8456080449       -0.3546240559
 N         -3.2417801635       -0.9925495213        0.3538419397
 S         -4.1060041744        0.3678728448       -0.1402253767
 O         -3.6805516405        0.7480579338       -1.4636659850
 O         -4.0374266868        1.3962265111        0.8740142020
 C         -5.7509248359       -0.3175810645       -0.2155099437
 C         -6.6463822437       -0.0642863838        0.8060688296
 C         -7.9118498016       -0.6267525968        0.7429277608
 C         -8.2571337104       -1.4308273119       -0.3327053536
 C         -7.3475765659       -1.6755848691       -1.3511681597
 C         -6.0815735043       -1.1151267692       -1.2952031445
 H         -5.3450454663       -1.2693208424       -2.0667292631
 H         -7.6201316288       -2.2994157206       -2.1871116891
 H         -9.2422583511       -1.8673952101       -0.3796934404
 H         -8.6223633040       -0.4354633214        1.5308316969
 H         -6.3356913397        0.5727621516        1.6184227172
 H         -3.8137845724       -1.6252276441        0.8960183755
 H         -2.1019053323       -2.5022011041        2.2198555824
 H          0.1987299487       -2.2324239678        3.0707233731
 H          1.6320939398       -0.4166098071        2.2113198999
 H          1.4005951223        2.0217609146        1.2478563507
 C          0.4420626005        2.3597459106       -0.6315181579
 C         -0.4736666201        3.4515377789       -0.1679714290
 C          0.8877829914        3.7884760146       -0.6957410963
 H          0.9642583013        4.2613206787       -1.6632894772
 H          1.6446839803        4.1041773297        0.0073585239
 H         -1.3393762696        3.6862052806       -0.7695108692
 H         -0.6466416927        3.5393891617        0.8942281311
 H          0.2092593137        1.8665259429       -1.5693008123
