  62
        -98.93426332
 C         -2.5838173248       -1.3532783603       -0.1223669797
 C         -2.4386487507       -0.1108366545       -0.7790856950
 C         -3.6488847992        0.7301576062       -0.8834478963
 C         -4.8047097525        0.2709882026       -0.3684388441
 C         -6.1415980745        0.9614449538       -0.3238803900
 C         -6.2083952305        2.0496374432        0.7608848191
 C         -4.9689723642        2.9354596228        0.8623851563
 H         -5.0879023623        3.5742910561        1.7416550916
 H         -4.0915856328        2.3090390985        1.0362266862
 C         -4.7152666473        3.8411740093       -0.3403207517
 H         -5.5696361145        4.5092577922       -0.4711909515
 H         -3.8441621040        4.4579159658       -0.1039204232
 C         -4.4488623788        3.1309918975       -1.6686039118
 H         -4.0718052369        3.8826757780       -2.3684032135
 H         -5.3704567698        2.7457696156       -2.0963309915
 C         -3.3933918990        2.0308399971       -1.6061318969
 H         -3.1223378373        1.7514896103       -2.6316852753
 H         -2.4752990706        2.4393788100       -1.1676535961
 H         -7.0872062254        2.6693688920        0.5757687341
 H         -6.3411152898        1.5549990816        1.7261220204
 H         -6.3819020923        1.3700488651       -1.3007937317
 H         -6.8835646552        0.1942760020       -0.0920140235
 O         -4.8959892246       -0.9384693455        0.2556564308
 C         -3.8051696883       -1.7707611759        0.4042573243
 O         -4.0421194871       -2.8352587163        1.0109214229
 H          1.2491582185       -1.7543344011       -0.6118764672
 C          0.9726090928       -1.3694339960        0.3570882509
 C         -0.3150145900       -1.5536725130        0.8311996988
 C         -0.6431468282       -1.0383400142        2.0830513385
 C          0.2920821177       -0.3511647762        2.8314723081
 C          1.5776246134       -0.1648040723        2.3523725730
 C          1.9158294812       -0.6749826923        1.1075059568
 N          3.2254788101       -0.5215735415        0.6158689478
 S          4.0108471452        0.9536184087        0.8578689495
 O          4.4724778410        1.0069985210        2.2228128566
 O          3.1724386694        2.0519974938        0.4319376773
 C          5.4012959321        0.7620683786       -0.2400941094
 C          6.5270088476        0.1049229959        0.2188883735
 C          7.5970420881       -0.0723388469       -0.6436491712
 C          7.5237109614        0.4067417179       -1.9431986737
 C          6.3877558329        1.0657947931       -2.3889648085
 C          5.3133633481        1.2454422423       -1.5318349707
 H          4.4141838192        1.7592905742       -1.8331379134
 H          6.3345222111        1.4397138822       -3.3988397226
 H          8.3578661155        0.2683483434       -2.6128064670
 H          8.4829706716       -0.5818104545       -0.3005577281
 H          6.5414153608       -0.2417567062        1.2388638477
 H          3.2967478170       -0.8033238778       -0.3527863262
 H          2.3131844007        0.3794573481        2.9220262738
 H          0.0203642564        0.0477138772        3.7977057222
 H         -1.6493192881       -1.1775916220        2.4562709662
 C         -1.3866479141       -2.2719302054        0.0469130444
 H         -1.7391603802       -3.1194921354        0.6521072267
 C         -0.9275397968       -2.7912150555       -1.2990110692
 C         -0.1775157280       -4.0853455165       -1.3896372630
 C         -1.5941759935       -4.0045037984       -1.8714120299
 H         -1.7819946854       -4.0359943751       -2.9341849922
 H         -2.3671370088       -4.4713755849       -1.2783729680
 H          0.6073293597       -4.1776768321       -2.1251595879
 H          0.0150259739       -4.6155832802       -0.4693502691
 H         -0.6668056135       -1.9950085563       -1.9868374797
 O         -1.3467879928        0.2918042232       -1.2622286814
