  62
        -98.93705082
 C          2.5256894135        1.1828970530       -0.4066968245
 C          1.8790327935       -0.0342320097       -0.7440287400
 C          2.7296530192       -1.2370185787       -0.7369958778
 C          4.0332652003       -1.1317947442       -0.4273881285
 C          4.9899419021       -2.2829423866       -0.3226961275
 C          5.0329640204       -2.8362857803        1.1086958579
 C          3.6534630492       -3.1031608577        1.7119323058
 H          3.8101113679       -3.5183137835        2.7100021976
 H          3.1272925454       -2.1539607797        1.8405026766
 C          2.7755376237       -4.0598859617        0.8931956352
 H          3.3954998405       -4.6281698230        0.1986138013
 H          2.3096924254       -4.7757611112        1.5736930122
 C          1.6431855367       -3.3800142035        0.1209906677
 H          1.0675898240       -2.7408616873        0.7967821350
 H          0.9669641807       -4.1582732323       -0.2433958933
 C          2.0737695428       -2.5425113439       -1.0896763535
 H          2.7221034116       -3.1374949206       -1.7361650317
 H          1.1709191156       -2.2835415605       -1.6503236826
 H          5.6141185165       -3.7601638011        1.1046376397
 H          5.5487674356       -2.1127468361        1.7442725870
 H          4.6887292165       -3.0649316072       -1.0168779861
 H          5.9855492662       -1.9294630582       -0.5959783913
 O          4.6214721713        0.0513998707       -0.1181319840
 C          3.8849871672        1.2222533475       -0.0758713058
 O          4.5470028581        2.2238311471        0.2621318257
 H         -0.7978807607        1.9655174723       -0.9713331398
 C         -0.6590614814        2.0232563859        0.0968175021
 C          0.5926903885        2.3238333336        0.6085519066
 C          0.7596533096        2.3672827325        1.9889487930
 C         -0.3033967461        2.1163370793        2.8377379065
 C         -1.5466591650        1.7928708858        2.3244131990
 C         -1.7155305682        1.7301118014        0.9479847551
 N         -2.9676384402        1.3544260042        0.4276650438
 S         -3.6677596060       -0.0126738770        1.1402466428
 O         -4.6105902107        0.4390410391        2.1364464488
 O         -2.6472024555       -0.9171469247        1.6161797319
 C         -4.5378897068       -0.7367485774       -0.2363898909
 C         -5.9042795283       -0.5745521958       -0.3564814484
 C         -6.5509082083       -1.1373923957       -1.4459417938
 C         -5.8240256588       -1.8460295787       -2.3904425134
 C         -4.4515558058       -1.9983988591       -2.2566682966
 C         -3.7981924344       -1.4384065645       -1.1704942511
 H         -2.7328189270       -1.5369763298       -1.0259995139
 H         -3.8876594821       -2.5493653696       -2.9922724037
 H         -6.3286764040       -2.2846838682       -3.2367384833
 H         -7.6172903013       -1.0223903369       -1.5540431907
 H         -6.4258889165       -0.0194915030        0.4057895365
 H         -2.9353576889        1.2546135701       -0.5782160970
 H         -2.3814673246        1.5596828055        2.9673728534
 H         -0.1601640818        2.1579191287        3.9073210080
 H          1.7397794256        2.5859508316        2.3912540787
 C          1.7868250458        2.5088285296       -0.2927733797
 H          2.4949253733        3.1814856795        0.2159178765
 C          1.4354718625        3.1728127326       -1.6158571653
 C          2.4494721779        3.2289721171       -2.7188784467
 C          1.2005650994        2.4201328588       -2.8890247176
 H          0.4411227455        2.7909008732       -3.5622087136
 H          1.2759458603        1.3450852767       -2.8669528597
 H          2.5548296376        4.1452062280       -3.2797775236
 H          3.3801005773        2.7036270480       -2.5583697712
 H          0.8362507685        4.0657112682       -1.4638753754
 O          0.6637562240       -0.1395679715       -1.0514507770
