  62
        -98.93829452
 C         -1.8878877941       -1.3453530791        0.1213591528
 C         -2.2232898425       -0.3359050680       -0.8089110228
 C         -3.6090368468        0.1791904339       -0.7700908382
 C         -4.4699098545       -0.3228329267        0.1337220525
 C         -5.9032083574        0.0647332345        0.3842123430
 C         -6.0357593601        1.3956185703        1.1405362025
 C         -5.1337258042        2.5153788713        0.6290610903
 H         -4.0922262092        2.1949188210        0.6943170188
 H         -5.2513048341        3.3697097281        1.3010136286
 C         -5.4319630785        2.9923998537       -0.7904656911
 H         -4.7910513862        3.8569282918       -0.9823250395
 H         -6.4689894514        3.3310533560       -0.8443573525
 C         -5.1936008580        1.9702794312       -1.9046226876
 H         -5.1890059388        2.5180224615       -2.8516325842
 H         -6.0102538741        1.2561152437       -1.9667875501
 C         -3.8590897104        1.2368443238       -1.8188819084
 H         -3.0538884215        1.9724487960       -1.7084470246
 H         -3.6691444688        0.7457380678       -2.7808942063
 H         -5.7827335620        1.2163953819        2.1884428837
 H         -7.0782803188        1.7152690564        1.0954444873
 H         -6.4526549584        0.0960089896       -0.5519009793
 H         -6.3372274220       -0.7277739948        0.9980068254
 O         -4.1017486571       -1.2923670137        1.0186687377
 C         -2.8302719679       -1.8226269234        1.0384190082
 O         -2.6572470366       -2.7080771347        1.8997824079
 H          0.4245494150        0.4298555535       -0.5460613046
 C          0.8628494511        0.1046985329        0.3858258562
 C          0.4727407849       -1.1105194903        0.9306899599
 C          1.0339912799       -1.5075980060        2.1384258753
 C          1.9611927510       -0.7070895851        2.7835018952
 C          2.3481760416        0.5030868464        2.2366687519
 C          1.7867514634        0.9105291498        1.0335523065
 N          2.1894108775        2.1349174829        0.4585371794
 S          3.8295181537        2.2494646794        0.1255315145
 O          4.5410394650        2.5474157293        1.3432789291
 O          3.9487016549        3.2264383762       -0.9333945250
 C          4.2721711968        0.6227683537       -0.4569764507
 C          3.8178691807        0.2333120936       -1.7012334627
 C          4.0835869455       -1.0535630843       -2.1387932829
 C          4.7875160853       -1.9274266992       -1.3244959387
 C          5.2367767961       -1.5208410657       -0.0780089084
 C          4.9759110960       -0.2339156505        0.3643828546
 H          5.3068165729        0.1228971903        1.3257446981
 H          5.7842239386       -2.2029449999        0.5521576915
 H          4.9873909861       -2.9314186481       -1.6644256033
 H          3.7364661941       -1.3697596929       -3.1096008441
 H          3.2752157393        0.9398893244       -2.3090657704
 H          1.6536318770        2.3703256539       -0.3653943668
 H          3.0744104545        1.1376594679        2.7186628050
 H          2.3876087011       -1.0290953029        3.7212149661
 H          0.7298772596       -2.4472098906        2.5763027502
 C         -0.5144068517       -1.9939886601        0.2063521823
 H         -0.6577549308       -2.8991252657        0.8110682445
 C          0.0343539458       -2.4040152269       -1.1477425070
 C          1.1216926388       -3.4322923741       -1.2064593057
 C         -0.2603808715       -3.7744611636       -1.6748033925
 H         -0.4353232466       -3.8921274507       -2.7337361482
 H         -0.8621446476       -4.4279296833       -1.0596495294
 H          1.4596702907       -3.8552871700       -0.2728361908
 H          1.9005429072       -3.3141326444       -1.9432268229
 H          0.0662790213       -1.5931372796       -1.8627981047
 O         -1.4212525831        0.1456734753       -1.6556608049
