  62
        -98.93842678
 C          0.8869427501        1.7500508702        0.0732857203
 C          1.7403023501        1.2276807302        1.0700965503
 C          2.7373716503        0.2319689904        0.6359687403
 C          2.7816788404       -0.1213520794       -0.6612132698
 C          3.7170414406       -1.0861820092       -1.3455161898
 C          5.1994996306       -1.0099748090       -0.9484647397
 C          5.6720769507       -2.2145678190       -0.1324880998
 H          5.2134129209       -3.1157309591       -0.5446546199
 H          6.7529163207       -2.3164042989       -0.2528734697
 C          5.3805704006       -2.1394606592        1.3653876402
 H          5.6295183807       -3.1104232192        1.8002392401
 H          6.0404369405       -1.4005445492        1.8253537803
 C          3.9370864705       -1.7914521295        1.7347924702
 H          3.2380728907       -2.3116993195        1.0812263901
 H          3.7558767205       -2.1546069496        2.7487967801
 C          3.6454666803       -0.2834836695        1.7188947703
 H          4.5838904802        0.2780606506        1.6913777404
 H          3.1535961902        0.0053341603        2.6531980203
 H          5.7889559106       -0.9747913289       -1.8661150697
 H          5.3931460604       -0.0855199991       -0.4068387896
 H          3.3470418508       -2.1018598993       -1.1890381299
 H          3.6107236606       -0.8732768892       -2.4114435298
 O          1.9063557104        0.3760393105       -1.5797746498
 C          0.9327098802        1.3002668203       -1.2459629997
 O          0.1960585002        1.6352918603       -2.1901569797
 O          1.6709547900        1.5743851801        2.2820857303
 C         -0.1569252601        2.7822338200        0.4642801403
 C         -1.5259795900        2.1721797498        0.2978114002
 C         -2.5126847000        2.6867767397       -0.5309475598
 C         -3.7270570299        2.0332967496       -0.6638882599
 C         -3.9858186598        0.8642295195        0.0276624300
 C         -3.0065091497        0.3467053095        0.8665702400
 C         -1.7924183098        0.9997657997        0.9963979601
 H         -1.0283108598        0.5921359998        1.6468506401
 N         -3.2544676296       -0.8540734106        1.5704936198
 S         -3.4218112193       -2.2264584605        0.6246008597
 O         -4.6217724493       -2.1040478906       -0.1620413703
 O         -3.3687513392       -3.3400196506        1.5441028896
 C         -1.9903423293       -2.2417795602       -0.4391740002
 C         -0.8717262492       -2.9446385601       -0.0390050702
 C          0.2513827909       -2.9324068998       -0.8497021301
 C          0.2409834508       -2.2113316797       -2.0336554301
 C         -0.8845571493       -1.4969865199       -2.4130772001
 C         -2.0134205493       -1.5109612601       -1.6102854501
 H         -2.9078355994       -0.9732847002       -1.8793169202
 H         -0.8793290193       -0.9156471298       -3.3207934100
 H          1.1142219708       -2.1976705895       -2.6663133600
 H          1.1281733709       -3.4876166297       -0.5554122701
 H         -0.9069351092       -3.4990338301        0.8853483397
 H         -2.5646759196       -1.0350714305        2.2870738799
 H         -4.9182775597        0.3342570393       -0.0803604901
 H         -4.4827341999        2.4406549395       -1.3183286199
 H         -2.3288046601        3.5929174498       -1.0837459797
 H          0.0038152798        2.9691153899        1.5360228504
 C          0.0405968298        4.0772339501       -0.2921667595
 C         -0.4890378605        5.3597696700        0.2740369205
 C          0.9867917796        5.1012418402        0.2564868706
 H          1.6013934195        5.6580297704       -0.4347915193
 H          1.4787212495        4.8747807902        1.1913152106
 H         -0.8876154906        6.0984728100       -0.4045853594
 H         -1.0006218605        5.3127306998        1.2234780605
 H          0.0197639898        3.9440681602       -1.3673805196
