  62
        -98.94091330
 C         -2.3879388886       -1.2621645117        0.1382150370
 C         -2.2687925376        0.1468172360        0.0307757040
 C         -3.3825285803        0.9249221474        0.5957337271
 C         -4.4061525382        0.3003299195        1.2030443489
 C         -5.6026580026        0.9589116862        1.8341125553
 C         -6.7205857129        1.3034641381        0.8404177799
 C         -6.4241774567        2.4795288606       -0.0910747529
 H         -7.3644231834        2.7483849019       -0.5765265125
 H         -6.1057341635        3.3387343085        0.5000805105
 C         -5.3779984186        2.1825251912       -1.1745082021
 H         -5.7348246290        2.5544211650       -2.1375993890
 H         -5.2544144344        1.1017482405       -1.2753199860
 C         -4.0091078881        2.8158645523       -0.9242667873
 H         -4.0977692118        3.9042528221       -0.9513213248
 H         -3.3375126030        2.5147847531       -1.7327310355
 C         -3.3598083257        2.4117946091        0.4060616986
 H         -2.3137067864        2.7290382890        0.3894038786
 H         -3.8616798917        2.9092952398        1.2357544183
 H         -6.9453097485        0.4151779070        0.2454982015
 H         -7.6113904752        1.5462972658        1.4241629003
 H         -5.9977852097        0.2499590757        2.5648692825
 H         -5.2896669072        1.8615022956        2.3597073576
 O         -4.4583858923       -1.0517684765        1.3320073231
 C         -3.4659529675       -1.8582856475        0.8012378504
 O         -3.6506360324       -3.0773871060        0.9885191315
 O         -1.3025190966        0.7453546884       -0.5091311318
 C         -1.3334596674       -2.2165966626       -0.3998418941
 C          0.0333630065       -1.7797729786        0.0630227516
 C          0.4263791228       -2.0491261422        1.3703547133
 C          1.6562505899       -1.6256758820        1.8377030785
 C          2.5143344542       -0.9166514775        1.0151341349
 C          2.1212498749       -0.6238192892       -0.2834845555
 C          0.8954802180       -1.0726422576       -0.7585005000
 H          0.5929278030       -0.8280510985       -1.7647684432
 N          2.9776646595        0.1019084284       -1.1264758138
 S          3.8271947723        1.4112843391       -0.5147592339
 O          3.1315423117        2.0621867638        0.5706341882
 O          4.1303052522        2.2305284114       -1.6684589510
 C          5.3401186733        0.6808683433        0.0808845066
 C          5.7737171801        0.9452632927        1.3651704077
 C          6.9590369660        0.3759040044        1.8041709452
 C          7.6874964989       -0.4423929184        0.9547241773
 C          7.2406336409       -0.6953657881       -0.3336749877
 C          6.0571012128       -0.1285323279       -0.7785257880
 H          5.6778942530       -0.2978642600       -1.7723214686
 H          7.8099836846       -1.3320024371       -0.9916247346
 H          8.6087813955       -0.8851804926        1.2989422416
 H          7.3079061544        0.5726716603        2.8052334378
 H          5.1718785678        1.5836534404        1.9926915209
 H          2.5660196528        0.3274837847       -2.0205784315
 H          3.4679690687       -0.5701742327        1.3781818285
 H          1.9499702569       -1.8449145571        2.8530959370
 H         -0.2515032238       -2.5869843243        2.0192914263
 H         -1.5587860330       -3.1830529809        0.0782968931
 C         -1.4045074981       -2.4511170012       -1.9019857625
 C         -2.7323671146       -2.5997948372       -2.5814500232
 C         -1.8686945241       -1.4120893308       -2.8759064036
 H         -1.3798732299       -1.3619676113       -3.8383902910
 H         -2.1646173615       -0.4497183412       -2.4894640862
 H         -2.8431859556       -3.3598952065       -3.3398883135
 H         -3.6161258651       -2.4524792602       -1.9773883017
 H         -0.6128927835       -3.1128262891       -2.2406262318
