  62
        -98.93742599
 C         -2.4784645442       -1.1755508618        0.0081942022
 C         -3.4178456949       -0.6512060835        0.9339668170
 C         -4.3717257257        0.3493626776        0.4280871297
 C         -4.3174128090        0.6995750363       -0.8682240242
 C         -5.1477809613        1.7336177405       -1.5766256998
 C         -4.4287292893        3.0934502307       -1.5845494907
 C         -4.6878724630        3.9666582732       -0.3574138298
 H         -4.0249453810        4.8319720294       -0.4291042950
 H         -5.7145670804        4.3370612889       -0.3916766426
 C         -4.4592953675        3.2836306340        0.9935736276
 H         -3.5423191514        2.6923978990        0.9572848277
 H         -4.3099372296        4.0645231098        1.7417315699
 C         -5.6359492534        2.3976562722        1.4291840785
 H         -5.9318735448        2.6642794874        2.4458822253
 H         -6.4951396723        2.6079131132        0.7925080564
 C         -5.3529981938        0.8881438346        1.4330569837
 H         -6.2987752861        0.3475244258        1.3209434095
 H         -4.9414189525        0.5973085090        2.4045378376
 H         -3.3564828713        2.9045814233       -1.6826430582
 H         -4.7439019909        3.6511890824       -2.4688330040
 H         -6.1330730616        1.8117553852       -1.1269406014
 H         -5.2572605774        1.3917760953       -2.6079786347
 O         -3.4120028927        0.1624728346       -1.7288229013
 C         -2.4721860603       -0.7708107701       -1.3260568140
 O         -1.7178874120       -1.1391519958       -2.2504330822
 O         -3.4561542706       -1.0073419115        2.1421716920
 C         -1.4941220197       -2.1998390002        0.5478546444
 C         -0.1451834595       -1.5807679502        0.8300207480
 C          0.3662272054       -1.5484824036        2.1220979950
 C          1.6078309162       -0.9917391428        2.3743818299
 C          2.3605729901       -0.4506761491        1.3476575606
 C          1.8583225555       -0.4767097947        0.0529944488
 C          0.6176836053       -1.0460116941       -0.1983639533
 H          0.2300560211       -1.0597390577       -1.2064054084
 N          2.5956583484        0.0981591281       -0.9953394723
 S          4.2231261517       -0.2767004376       -1.1448869856
 O          4.5428570768       -0.0351160448       -2.5347579419
 O          4.5133287693       -1.5987786361       -0.6398203681
 C          5.0351402656        0.9511026341       -0.1424835861
 C          5.9296787150        0.5622177110        0.8353015748
 C          6.5566464429        1.5369968784        1.5959877903
 C          6.2803907824        2.8759151726        1.3656604465
 C          5.3814963752        3.2500628497        0.3777553897
 C          4.7522771304        2.2806909067       -0.3867653739
 H          4.0496982499        2.5291500719       -1.1648237297
 H          5.1688067139        4.2922609644        0.2016199829
 H          6.7681920044        3.6327853623        1.9593737329
 H          7.2557883926        1.2483707556        2.3642852166
 H          6.1085900609       -0.4909572150        0.9826154167
 H          2.1275092366        0.0500878667       -1.8888789529
 H          3.3266617308       -0.0129653370        1.5386792500
 H          1.9926798562       -0.9745109929        3.3825691417
 H         -0.2221543874       -1.9542983062        2.9320431494
 H         -1.9184625579       -2.5227943731        1.5079275793
 C         -1.3476142084       -3.4188679750       -0.3423758483
 C         -0.8402487067       -4.6961764851        0.2537437468
 C         -2.2767306549       -4.5791751075       -0.1576036864
 H         -2.6108205794       -5.1152036831       -1.0332326623
 H         -3.0244695382       -4.5014440142        0.6182124527
 H         -0.1825725142       -5.3143232419       -0.3380247492
 H         -0.6141155717       -4.6998779634        1.3092368460
 H         -1.0461968421       -3.1813706266       -1.3544314649
