  62
        -98.94528954
 C         -1.3072799599       -0.8862411202        0.4005471712
 C         -2.2493926401       -0.8188445309       -0.6559350687
 C         -3.0980972102        0.3811075390       -0.6781527993
 C         -2.9285069201        1.3463552196        0.2418498402
 C         -3.6944018702        2.6387980596        0.3252534895
 C         -5.0391352101        2.5202306399        1.0558263798
 C         -6.1369847101        1.7852602393        0.2856807803
 H         -7.0746608101        1.9659604796        0.8151120904
 H         -6.2362048903        2.2210491088       -0.7089475699
 C         -5.9221375000        0.2698854593        0.1670145312
 H         -5.1853575899       -0.0527661902        0.9063681213
 H         -6.8548461500       -0.2493219406        0.3989679816
 C         -5.4735421802       -0.2000894515       -1.2168142586
 H         -5.3139913101       -1.2805352814       -1.1762902080
 H         -6.2643733203       -0.0038896520       -1.9442298986
 C         -4.1778316703        0.4526888683       -1.7155288592
 H         -4.3644216504        1.4873079182       -2.0015788797
 H         -3.8323324204       -0.0980869621       -2.5935302789
 H         -4.8730715199        2.0243912904        2.0151421000
 H         -5.3878079101        3.5346888300        1.2629470392
 H         -3.8577996904        3.0340850590       -0.6776467507
 H         -3.0661562702        3.3401390299        0.8787875290
 O         -1.9917550300        1.2588708302        1.2241485901
 C         -1.1864271799        0.1387338603        1.3426514906
 O         -0.4067687397        0.1766110410        2.3171257205
 O         -2.3956288201       -1.6988253814       -1.5425945081
 C         -0.3501439198       -2.0562485700        0.5756447018
 C          0.7960906801       -1.9169486105       -0.3981996484
 C          0.6596951599       -2.2239446013       -1.7481269382
 C          1.7251477198       -2.0557335117       -2.6132052985
 C          2.9377151298       -1.5692913414       -2.1572208989
 C          3.0835309300       -1.2557664206       -0.8111431191
 C          2.0172434001       -1.4397201502        0.0582453211
 H          2.1460525902       -1.1999945195        1.1030967510
 N          4.3058271600       -0.7686930202       -0.3189419096
 S          4.3226500500        0.5012644404        0.7703273997
 O          5.6782702400        1.0037851605        0.7057288092
 O          3.8771105602        0.0519355511        2.0634778600
 C          3.2032860698        1.7044503599        0.0786161891
 C          1.9142013199        1.8191612101        0.5553827093
 C          1.0568074498        2.7240144197       -0.0520729612
 C          1.4976339696        3.4931624891       -1.1167583317
 C          2.7997013595        3.3707544589       -1.5792979318
 C          3.6599670596        2.4660641294       -0.9806407814
 H          4.6824498996        2.3494169393       -1.3017313314
 H          3.1426845293        3.9753312585       -2.4033625522
 H          0.8231091794        4.1932942188       -1.5839243120
 H          0.0462692998        2.8126730298        0.3159514089
 H          1.5867600101        1.2143134506        1.3867216396
 H          5.0167171199       -0.6444449406       -1.0254790997
 H          3.7670109497       -1.4355438517       -2.8349535591
 H          1.6077319197       -2.2987520723       -3.6583458583
 H         -0.2925545001       -2.5701101716       -2.1165521879
 H          0.0633701103       -1.9530848794        1.5883394217
 C         -1.0330803897       -3.4053505402        0.4755378927
 C         -0.3349689495       -4.6097621398        1.0284485233
 C         -1.5437196295       -4.0589239595        1.7225790231
 H         -2.4676672195       -4.6154069796        1.6721483936
 H         -1.4008579394       -3.5357302189        2.6574724928
 H         -0.4269886795       -5.5469311701        0.5014915538
 H          0.6283297805       -4.4587201594        1.4929171031
 H         -1.6212727598       -3.5305153807       -0.4233621972
