  62
        -98.94147231
 C         -1.8353684241       -1.3074874314        0.1427405330
 C         -3.0482563874       -0.8639035789        0.7275012641
 C         -3.7533837179        0.2172305807        0.0256357821
 C         -3.2048430734        0.7470716671       -1.0826524863
 C         -3.7811281629        1.8941515979       -1.8602874365
 C         -3.2473618402        3.2397678143       -1.3488877372
 C         -3.3357610841        3.4041949891        0.1684809495
 H         -2.6680259338        2.6830097398        0.6462465805
 H         -2.9570059452        4.3996013083        0.4112208020
 C         -4.7496841047        3.2401156444        0.7435910554
 H         -4.9303846529        4.0413910431        1.4632553855
 H         -5.4878937720        3.3473209835       -0.0519724901
 C         -4.9854218930        1.9191882403        1.4784421371
 H         -5.9302125434        1.9968643188        2.0229847013
 H         -4.1953936400        1.7645843559        2.2180633829
 C         -5.0693908959        0.6691227274        0.5935348883
 H         -5.4249758066       -0.1549605517        1.2191623828
 H         -5.7965660054        0.8326311807       -0.2046450822
 H         -3.8075431174        4.0405696468       -1.8348670190
 H         -2.1991437337        3.3332972590       -1.6426121732
 H         -4.8663632650        1.8695919128       -1.7815140703
 H         -3.4993926405        1.7766884137       -2.9079649477
 O         -2.0224488747        0.3237467165       -1.5943018748
 C         -1.3057493700       -0.7148224983       -1.0049376034
 O         -0.2436761840       -0.9851071412       -1.5902633114
 O         -3.5168998298       -1.3466446417        1.7934203628
 C         -1.0829549534       -2.4227661981        0.8453569908
 C          0.3855204237       -2.0910130025        0.9586827850
 C          1.4034108145       -2.9809224741        0.6420337646
 C          2.7304280172       -2.6119565482        0.7845167640
 C          3.0737596010       -1.3487245325        1.2268513293
 C          2.0633111989       -0.4433842058        1.5271148049
 C          0.7365030756       -0.8248104204        1.4120436417
 H         -0.0459950469       -0.1164576719        1.6573726455
 N          2.3982569876        0.8584305619        1.9359639571
 S          3.6398281513        1.6383463354        1.1263790615
 O          4.9007585091        1.2701341754        1.7227781981
 O          3.3048827428        3.0445377005        1.1949296762
 C          3.5879388242        1.0623555221       -0.5615086794
 C          4.7203810892        0.5087796421       -1.1239722194
 C          4.6650187549        0.0545542449       -2.4314429986
 C          3.4823720774        0.1557682887       -3.1475964889
 C          2.3550283876        0.7197414845       -2.5709221975
 C          2.4072702216        1.1807534857       -1.2662851966
 H          1.5401722928        1.6167837143       -0.7955299628
 H          1.4275440857        0.7802823721       -3.1165150339
 H          3.4347982872       -0.2088732771       -4.1615670235
 H          5.5401070498       -0.3828670238       -2.8845536743
 H          5.6151849607        0.4409306870       -0.5265324525
 H          1.6032995989        1.4690212760        2.0528930513
 H          4.1020382150       -1.0468921627        1.3432198979
 H          3.5094170578       -3.3172457275        0.5391416808
 H          1.1623824958       -3.9619386217        0.2685133320
 H         -1.5016598110       -2.4303858163        1.8665973214
 C         -1.3437756719       -3.8060421565        0.2648014239
 C         -2.5462053236       -4.0824606252       -0.5862365351
 C         -1.1786103518       -4.0940230381       -1.1965849047
 H         -0.7571322471       -5.0445479677       -1.4890671300
 H         -0.8921321377       -3.2720914708       -1.8333680876
 H         -3.0610725704       -5.0221056309       -0.4517693237
 H         -3.2031656387       -3.2560043832       -0.8161155867
 H         -1.0596356342       -4.5965169074        0.9524433277
