  62
        -98.93805554
 C          0.0365360704        1.9751007522        0.0955653964
 C          1.0216364464        1.6144406396        1.0438540718
 C          2.3720456658        1.3712203555        0.5144092311
 C          2.5825372716        1.4732442114       -0.8108764952
 C          3.8869393029        1.2134954598       -1.5098473213
 C          4.1396392447       -0.3026431916       -1.6247999841
 C          5.3515698746       -0.7948092032       -0.8344113480
 H          5.3198866433       -1.8859405667       -0.8266355841
 H          6.2621867125       -0.4975838566       -1.3586602440
 C          5.4547246775       -0.2882235745        0.6075606739
 H          6.1814365729       -0.9234030133        1.1183396385
 H          5.8682864134        0.7213657622        0.6133936221
 C          4.1486492558       -0.2881624390        1.4125497706
 H          3.4428510252       -1.0105181077        1.0048203035
 H          4.3785301269       -0.6031843718        2.4324358435
 C          3.4572880408        1.0834886757        1.5154521364
 H          4.2085602173        1.8776009305        1.4736460865
 H          2.9628997515        1.1532366434        2.4890353039
 H          3.2423043297       -0.8235584929       -1.2861321373
 H          4.2843414237       -0.5678907286       -2.6729086725
 H          3.8176825887        1.6648341757       -2.4997550402
 H          4.6947374842        1.6962805395       -0.9638411258
 O          1.5956639915        1.7702262218       -1.6961932395
 C          0.3061424879        2.0493038875       -1.2704132853
 O         -0.4859749467        2.3426335805       -2.1850617294
 O          0.7858023319        1.5148034076        2.2793377142
 C         -1.3575609620        2.3286230888        0.5783221098
 C         -2.3997048033        1.4879390425       -0.1148802251
 C         -3.5369165063        2.0239472405       -0.7050710046
 C         -4.4642665107        1.1997253164       -1.3176162212
 C         -4.2898206181       -0.1707411287       -1.3335860288
 C         -3.1599821743       -0.7193846688       -0.7364225386
 C         -2.2223866507        0.1091546894       -0.1421859417
 H         -1.3446792177       -0.3228109430        0.3198812177
 N         -2.9531998683       -2.1065967361       -0.7468190530
 S         -2.2452618108       -2.8777075705        0.5526819566
 O         -2.7186350754       -4.2442483435        0.4630499209
 O         -2.5171338916       -2.2006457043        1.7986453603
 C         -0.4996888192       -2.8925537998        0.2073742487
 C         -0.0631223276       -2.9348143868       -1.1015907476
 C          1.2926320553       -3.0799476397       -1.3499179777
 C          2.1817312904       -3.1949605539       -0.2922671289
 C          1.7290495910       -3.1395413232        1.0170259891
 C          0.3756507632       -2.9851016598        1.2711306730
 H         -0.0179987839       -2.9326783005        2.2738600754
 H          2.4212375599       -3.2225820526        1.8398240631
 H          3.2338483859       -3.3308838174       -0.4889184161
 H          1.6500041071       -3.1107137360       -2.3669152546
 H         -0.7803869109       -2.8509313279       -1.9012244763
 H         -3.7066704444       -2.6500560311       -1.1418168009
 H         -5.0166475533       -0.8151164666       -1.8043901535
 H         -5.3388639744        1.6305507367       -1.7808990417
 H         -3.6962939083        3.0892687901       -0.6921260503
 H         -1.3734372875        2.0710609032        1.6483190928
 C         -1.5840724227        3.8201613846        0.4341148034
 C         -2.5152484049        4.5391875901        1.3626244339
 C         -1.0351826576        4.7395970965        1.4820198198
 H         -0.6138553951        5.6836536611        1.1704933310
 H         -0.5207334943        4.2864496722        2.3168692237
 H         -3.1107341335        5.3503240947        0.9715011814
 H         -3.0102098309        3.9550642159        2.1237798799
 H         -1.5293744354        4.1504920148       -0.5975004837
