  62
        -98.94018997
 C         -2.2512248506       -0.8029085889        0.4284984197
 C         -1.0872455278       -1.1042524987        1.1738343549
 C         -0.3814844714       -2.3416505730        0.8079648051
 C         -0.8348562335       -3.0850723365       -0.2156421565
 C         -0.1187512977       -4.2586110170       -0.8196203586
 C          1.0241017296       -3.7419079111       -1.7191507745
 C          2.4266701039       -4.1171157047       -1.2399004547
 H          2.6068974711       -5.1727049700       -1.4563073850
 H          3.1347197201       -3.5310358980       -1.8302870586
 C          2.7077835215       -3.8851163880        0.2479876599
 H          2.2956189676       -4.7104268492        0.8311894130
 H          3.7917036327       -3.9219810520        0.3760951476
 C          2.1885904694       -2.5638340034        0.8295694456
 H          2.9320073325       -2.1864308888        1.5355323516
 H          2.0841129646       -1.8122123573        0.0454444667
 C          0.8543851783       -2.6869784414        1.5919029910
 H          0.7563169531       -3.6955973730        2.0023360461
 H          0.8655915334       -1.9871821710        2.4322106492
 H          0.8934854095       -4.1275032281       -2.7320081637
 H          0.9448566383       -2.6533776499       -1.7863561614
 H          0.2709920625       -4.9033128467       -0.0349870321
 H         -0.8435789642       -4.8205816287       -1.4091350640
 O         -1.9710178824       -2.7830891635       -0.8951187219
 C         -2.6889024613       -1.6374808469       -0.6039280751
 O         -3.6983329335       -1.4726349952       -1.3203964871
 O         -0.6218396183       -0.3806003675        2.0961784588
 C         -3.0404938081        0.4907832631        0.5711322219
 C         -2.4490089530        1.5195557318       -0.3665616242
 C         -3.2462486891        2.2402799321       -1.2464067628
 C         -2.6746750464        3.1187998043       -2.1503461521
 C         -1.3010287585        3.2619480258       -2.2201011424
 C         -0.4940147036        2.5461798218       -1.3413631428
 C         -1.0762572859        1.7193908350       -0.3945293823
 H         -0.4456384127        1.1842373493        0.2933740128
 N          0.9039425453        2.6432634738       -1.4033158059
 S          1.8870752015        1.2794617681       -1.2824956491
 O          2.8469093802        1.4205361109       -2.3607725979
 O          1.1146313620        0.0617970303       -1.2808288191
 C          2.7464247445        1.5360742114        0.2573939660
 C          3.9072045246        2.2863473626        0.2138549731
 C          4.5954705676        2.5357018935        1.3891125625
 C          4.1138582252        2.0335594539        2.5888942446
 C          2.9495143417        1.2830467330        2.6163325917
 C          2.2541853359        1.0306565641        1.4428857011
 H          1.3457573990        0.4490986951        1.4554313850
 H          2.5674132230        0.8897360752        3.5449879636
 H          4.6478855082        2.2261164776        3.5061101857
 H          5.5021057870        3.1186600093        1.3667544793
 H          4.2521973710        2.6449084188       -0.7418716095
 H          1.2396270808        3.2428616666       -2.1434784304
 H         -0.8527755042        3.9142845532       -2.9545882784
 H         -3.3033236219        3.6752487678       -2.8290614118
 H         -4.3158347871        2.0913512935       -1.2373060563
 H         -4.0567921855        0.2663245032        0.2178286412
 C         -3.1336150862        1.0307125454        1.9832708228
 C         -4.2884081532        1.9127800912        2.3481852418
 C         -4.2060208008        0.5201090115        2.8957200522
 H         -3.9697312436        0.3848743557        3.9401733831
 H         -4.8834051968       -0.2240901945        2.5021218715
 H         -4.1106412924        2.7398862015        3.0179310666
 H         -5.0278086464        2.1136350173        1.5877743949
 H         -2.1711218230        1.2520957187        2.4236440202
