  62
        -98.93771834
 C          1.4945177220        0.8946854184        0.4063970593
 C          2.8067298468        1.0030539436        0.9281777930
 C          3.9013247348        0.6747941993        0.0062490177
 C          3.6174279711        0.2946484845       -1.2523573396
 C          4.6078740807       -0.0329197827       -2.3385979805
 C          5.4882841888       -1.2761611646       -2.1068225658
 C          6.8498737466       -0.9773474217       -1.4670198980
 H          7.6063848991       -1.6034118253       -1.9445054241
 H          7.1190744944        0.0574976688       -1.6819408116
 C          6.9490560112       -1.2291092903        0.0405571866
 H          7.0502535456       -2.3024733302        0.2168574896
 H          7.8621004258       -0.7496946958        0.4000811617
 C          5.7687981587       -0.7372002863        0.8785257976
 H          6.0507813661       -0.7955470565        1.9317368842
 H          4.9196314799       -1.4128775424        0.7490259986
 C          5.2997950342        0.6938444540        0.5512639782
 H          5.9798570829        1.1704314597       -0.1529906159
 H          5.2709874755        1.2933637654        1.4632624632
 H          5.6637636203       -1.7250946042       -3.0858493106
 H          4.9380255771       -2.0056429528       -1.5127607454
 H          4.0099930269       -0.1837591640       -3.2397902023
 H          5.2471491491        0.8373919133       -2.5037316070
 O          2.3411790341        0.2020700366       -1.7156426904
 C          1.2505016652        0.4808666916       -0.9034601787
 O          0.1498502672        0.3400149239       -1.4683851485
 O          3.0526866338        1.3652120111        2.1099723289
 C          0.3261495939        1.1905609029        1.3325902365
 C         -0.3655808275       -0.1115771059        1.6549727131
 C          0.3078804229       -1.0578859379        2.4247386793
 C         -0.2807298037       -2.2708106858        2.7238045931
 C         -1.5456814722       -2.5732638914        2.2473710006
 C         -2.2226277906       -1.6405874003        1.4733366482
 C         -1.6370061764       -0.4123893800        1.1958133358
 H         -2.1794223003        0.3044790080        0.6065347029
 N         -3.5150634376       -1.9000782108        0.9808047195
 S         -3.7715073372       -1.7354695631       -0.6756800624
 O         -4.9899534917       -2.4822330424       -0.9173767071
 O         -2.6151749525       -2.1598843206       -1.4291906135
 C         -4.1088878661       -0.0049835285       -0.9141124532
 C         -5.2603503817        0.5082426207       -0.3493605442
 C         -5.5449428806        1.8537690567       -0.5157964298
 C         -4.6794148621        2.6566025091       -1.2439852934
 C         -3.5307248870        2.1231723885       -1.8083075365
 C         -3.2366928360        0.7777736715       -1.6447516186
 H         -2.3340230969        0.3366275378       -2.0398406958
 H         -2.8531484727        2.7469848910       -2.3700191111
 H         -4.8983429841        3.7051801122       -1.3721342418
 H         -6.4361510381        2.2729751514       -0.0773967373
 H         -5.9072819765       -0.1534167749        0.2020265101
 H         -3.9041839827       -2.7772782048        1.2987907545
 H         -2.0034826709       -3.5253207803        2.4715361229
 H          0.2501699562       -2.9925889686        3.3264467247
 H          1.3010834621       -0.8260226790        2.7842802121
 H          0.7820739863        1.5680952167        2.2589800933
 C         -0.5936724850        2.2510984170        0.7679897563
 C         -1.5792535336        2.9333169659        1.6677165983
 C         -0.3902355097        3.6848056901        1.1512317732
 H         -0.5446445325        4.4443646239        0.3999306242
 H          0.4118237767        3.9090979664        1.8392037568
 H         -2.5540517080        3.1739313904        1.2712806431
 H         -1.5841021296        2.6462982348        2.7082210445
 H         -0.8966543111        2.0494551661       -0.2519896221
