  62
        -98.93548052
 C         -2.4138596192       -0.5560224049        0.4910926306
 C         -2.3008123383        0.2343277347       -0.6753010698
 C         -2.1031406826        1.6816225081       -0.4755376744
 C         -2.0551856656        2.1682993136        0.7772543948
 C         -1.7992733832        3.5808415146        1.2405938428
 C         -2.4615122619        4.7198799108        0.4515650893
 C         -1.4767428399        5.5258130103       -0.3979254518
 H         -1.8888693993        6.5250565263       -0.5557863171
 H         -0.5482818445        5.6401498931        0.1653683496
 C         -1.1620738583        4.9348152581       -1.7708393319
 H         -2.0331840292        5.0458764647       -2.4202093170
 H         -0.3528698176        5.5252511896       -2.2066893619
 C         -0.7487770833        3.4619166879       -1.7714948633
 H         -0.0723107479        3.2446895235       -0.9439806206
 H         -0.1927042063        3.2696917766       -2.6916945745
 C         -1.9401176550        2.4922308935       -1.7316419190
 H         -2.8697623237        3.0302788338       -1.9362480367
 H         -1.8352272717        1.7478053501       -2.5269501766
 H         -3.2655445308        4.3248151014       -0.1665811527
 H         -2.9140844156        5.4002336250        1.1749597979
 H         -2.1406156646        3.6019896292        2.2785945438
 H         -0.7154881208        3.7269099589        1.2691252345
 O         -2.2053687871        1.3702835311        1.8751702750
 C         -2.3497541622        0.0002913208        1.7652177321
 O         -2.4203595574       -0.6025147858        2.8581008023
 H         -0.0045043587       -1.0718629203        0.5180185170
 C         -0.0462580640       -1.9208412676       -0.1490728236
 C         -1.2550573964       -2.5741030624       -0.3521612748
 C         -1.2769140600       -3.6769918093       -1.1961680001
 C         -0.1175895217       -4.0976121919       -1.8259858079
 C          1.0772897586       -3.4281966077       -1.6399369292
 C          1.1080963486       -2.3183096157       -0.8007414857
 N          2.2889909489       -1.5755933284       -0.6437488040
 S          2.4614527622       -0.4438824286        0.5855890360
 O          2.2892730096       -1.0659577521        1.8816755860
 O          1.6263691318        0.6969138319        0.3034438875
 C          4.1739981414       -0.0112502043        0.3424632363
 C          4.4944156022        0.8686372445       -0.6742073880
 C          5.8260356670        1.1843173106       -0.8922483937
 C          6.8098520106        0.6177930079       -0.0951186800
 C          6.4731441793       -0.2615823479        0.9228253845
 C          5.1429687397       -0.5822037118        1.1454337971
 H          4.8317178831       -1.2536892073        1.9294689291
 H          7.2394411579       -0.6978241105        1.5429982879
 H          7.8453778276        0.8654957410       -0.2668786709
 H          6.0911303652        1.8697088385       -1.6809922919
 H          3.6941880385        1.2886861205       -1.2613687366
 H          3.1339026997       -2.1023347802       -0.8117870406
 H          1.9753733376       -3.7492395508       -2.1443252639
 H         -0.1473742261       -4.9580064632       -2.4772142792
 H         -2.2020545581       -4.2043128087       -1.3629495399
 C         -2.4796277391       -2.0665204949        0.3749810327
 H         -2.4474626354       -2.4523238080        1.4058547743
 C         -3.7793885571       -2.5024773953       -0.2703806478
 C         -4.4317932354       -3.7908580078        0.1295896859
 C         -5.0322476945       -2.4845323648        0.5511094320
 H         -5.9506279650       -2.1609372865        0.0850512802
 H         -4.9383620547       -2.1859815967        1.5855384008
 H         -3.9420812103       -4.3870452375        0.8849343689
 H         -4.9435008745       -4.3660632315       -0.6272669989
 H         -3.8525504279       -2.1866469251       -1.3045118708
 O         -2.3458695005       -0.2479660288       -1.8382711682
