  62
        -98.94702517
 C         -2.2145788184       -0.7342576057       -0.4963847725
 C         -1.4701728736        0.2734244582       -1.1548737226
 C         -1.9110037614        1.6578489081       -0.9276575899
 C         -2.9567176696        1.8988279166       -0.1184737453
 C         -3.4779141582        3.2605454355        0.2367525100
 C         -2.8159583749        3.8006977226        1.5114716249
 C         -1.2894784438        3.7095253128        1.5079309927
 H         -0.9350036536        4.1658724820        2.4353755269
 H         -0.9837549598        2.6602875025        1.5370942302
 C         -0.6124744044        4.3929991388        0.3117985918
 H          0.2426189317        4.9654910634        0.6776401408
 H         -1.3020083646        5.0982934639       -0.1548844790
 C         -0.0788763087        3.4201276444       -0.7413544108
 H          0.5979487985        3.9680312993       -1.4030045248
 H          0.5031197084        2.6420229507       -0.2408070581
 C         -1.1418475596        2.7476906647       -1.6203675164
 H         -1.8208819520        3.5035682144       -2.0210365728
 H         -0.6285116838        2.2686042911       -2.4590664113
 H         -3.1894255768        3.2300118028        2.3650895497
 H         -3.1178764604        4.8420807999        1.6407250220
 H         -3.2974115401        3.9402657704       -0.5938327346
 H         -4.5538869786        3.1823112181        0.4034035962
 O         -3.6484973518        0.9094266654        0.5026473356
 C         -3.2873407585       -0.4160664111        0.3421956401
 O         -4.0011992149       -1.2179694807        0.9797432260
 H          0.5713408892       -1.1458806043       -0.2397937505
 C          0.3586841910       -1.9007827737        0.4972676817
 C         -0.8540241741       -2.5748112525        0.4595541053
 C         -1.1057892043       -3.5549473968        1.4115695672
 C         -0.1699550544       -3.8390632003        2.3903878916
 C          1.0147173378       -3.1292500247        2.4551894619
 C          1.2762633340       -2.1449748558        1.5071000902
 N          2.4627509406       -1.3992784714        1.5607340631
 S          2.4653530127        0.2669420926        1.3111172999
 O          3.3162614721        0.7927265744        2.3616562225
 O          1.1259013924        0.7959001070        1.2560038255
 C          3.3286947981        0.4446238369       -0.2370710297
 C          4.7106228094        0.4296023942       -0.1899479943
 C          5.4278027638        0.5399530560       -1.3690114638
 C          4.7542816244        0.6628673831       -2.5753279384
 C          3.3692118477        0.6773211530       -2.6058115329
 C          2.6438888467        0.5661258267       -1.4283381695
 H          1.5646093166        0.5705456277       -1.4403445842
 H          2.8390499531        0.7712913665       -3.5401872789
 H          5.3104204001        0.7491095280       -3.4956087072
 H          6.5056207270        0.5301434280       -1.3449101328
 H          5.1922275690        0.3470790610        0.7703308556
 H          3.0559421875       -1.6315480891        2.3443930801
 H          1.7318625253       -3.3274072276        3.2378626210
 H         -0.3747001373       -4.6040864322        3.1241671604
 H         -2.0497893570       -4.0797032074        1.3943434890
 C         -1.8901601235       -2.2191532773       -0.5810647380
 H         -2.8197835072       -2.7416870324       -0.3154899846
 C         -1.4586813200       -2.6843352426       -1.9574767565
 C         -1.6439017853       -4.1245628653       -2.3258114456
 C         -2.5009156847       -3.0716688329       -2.9609280172
 H         -2.3342756558       -2.8217712246       -3.9977531938
 H         -3.5358087257       -3.0042765416       -2.6573245644
 H         -0.8861032792       -4.6024731744       -2.9271942134
 H         -2.1003271627       -4.7748451910       -1.5948780519
 H         -0.5772068930       -2.1785068327       -2.3269039713
 O         -0.4863743571        0.0562599292       -1.9116574980
