  62
        -98.94969439
 C         -0.7749953398       -1.7869170551       -0.1428459174
 C         -1.9516523537       -1.6766951926        0.6330711594
 C         -2.9641415041       -0.7353915295        0.1370820920
 C         -2.7251388852       -0.0498420515       -0.9958187089
 C         -3.6762658080        0.9329519914       -1.6167432589
 C         -3.4368675485        2.3677432610       -1.1267922779
 C         -3.2997231840        2.4953581255        0.3906342102
 H         -2.3937492140        1.9829749579        0.7271950848
 H         -3.1584643306        3.5554688079        0.6162071416
 C         -4.5034450042        1.9636374554        1.1808948974
 H         -4.7436465525        2.6789311835        1.9704105606
 H         -5.3747775115        1.8948406187        0.5279123738
 C         -4.2709331447        0.6134561502        1.8613517019
 H         -5.0792457829        0.4512196046        2.5797866933
 H         -3.3340879321        0.6477754490        2.4246536953
 C         -4.2334150063       -0.6051161454        0.9301758438
 H         -5.1043179941       -0.5908765341        0.2711082416
 H         -4.2892268820       -1.5023595591        1.5538871419
 H         -4.2683357404        2.9887074007       -1.4663879327
 H         -2.5231115902        2.7502670519       -1.5867348164
 H         -3.5392207076        0.9016629498       -2.6991187500
 H         -4.6953737418        0.6293355419       -1.3834421404
 O         -1.5742206963       -0.1688991790       -1.7055205887
 C         -0.5618592023       -1.0231005200       -1.2898955932
 O          0.4487481831       -1.0179806718       -2.0160927054
 O         -2.1520106821       -2.3454839783        1.6845266426
 C          0.3095092766       -2.7510794486        0.2954046094
 C          1.6126402116       -2.0333976194        0.5471525640
 C          2.8504627413       -2.6047069832        0.2754254118
 C          4.0180414705       -1.9181298530        0.5583755811
 C          3.9793543338       -0.6492642191        1.1067511899
 C          2.7468404642       -0.0706377829        1.3853308718
 C          1.5800672870       -0.7663838459        1.1140068313
 H          0.6309901115       -0.3053279399        1.3450226237
 N          2.6584468577        1.2153940571        1.9476922249
 S          1.5443140332        2.2885012731        1.3190830953
 O          2.0144319071        3.5870894026        1.7583330980
 O          0.2103144262        1.9373953853        1.7383158860
 C          1.6848610610        2.1785275635       -0.4548737817
 C          2.9355049117        2.1515095443       -1.0392733050
 C          3.0262330637        2.0893799368       -2.4196711881
 C          1.8737798492        2.0636433067       -3.1893640392
 C          0.6267677394        2.1030227983       -2.5886876226
 C          0.5317093615        2.1601133332       -1.2084248899
 H         -0.4172630980        2.1737519072       -0.6968437110
 H         -0.2712737757        2.0694054713       -3.1845598862
 H          1.9464007431        2.0068712197       -4.2639544651
 H          3.9951457498        2.0558999313       -2.8914919488
 H          3.8182656825        2.1784627370       -0.4215991139
 H          3.5467272427        1.6677394729        2.1097736619
 H          4.8903592389       -0.1125480942        1.3236279895
 H          4.9717099219       -2.3747368141        0.3422257201
 H          2.8999542141       -3.5900862874       -0.1579372113
 H         -0.0381947216       -3.1647204665        1.2549736106
 C          0.4361430355       -3.8844952848       -0.7035377639
 C          0.7898423360       -5.2678016450       -0.2473911676
 C         -0.6040479172       -4.9631920693       -0.7043945215
 H         -0.9380740799       -5.3584023265       -1.6519241506
 H         -1.3847941068       -4.8962561077        0.0395016333
 H          1.4131107665       -5.8772382895       -0.8844122729
 H          0.9514465631       -5.4216959728        0.8089379639
 H          0.8094401316       -3.5485237889       -1.6644115607
