  62
        -98.94027985
 C          1.8111394536        0.8362008911       -0.8275069282
 C          2.0455730389        0.3375932758        0.4779182181
 C          3.4593194344        0.2187441512        0.8716401374
 C          4.4218393933        0.6209638565        0.0231594824
 C          5.8963055370        0.5071450696        0.2780792642
 C          6.4510382141       -0.8225270559       -0.2518204739
 C          5.6428492527       -2.0455761457        0.1817198855
 H          4.6530487262       -2.0003719050       -0.2782316871
 H          6.1449134168       -2.9269008145       -0.2232583119
 C          5.4878321581       -2.1981163446        1.7013348979
 H          5.6725036510       -3.2406485102        1.9688537791
 H          6.2390285804       -1.5951481870        2.2127710419
 C          4.1000432838       -1.8400004339        2.2364821649
 H          4.0347939576       -2.1879467296        3.2707812405
 H          3.3381080994       -2.3739467024        1.6631705852
 C          3.7480795010       -0.3469223785        2.2337387689
 H          2.8269410072       -0.2202819417        2.8102670155
 H          4.5416273339        0.2190646274        2.7259002189
 H          7.4828347752       -0.9258971612        0.0889876158
 H          6.4565178228       -0.7846759357       -1.3437150284
 H          6.0824688252        0.5905356904        1.3470972203
 H          6.3981332205        1.3299340383       -0.2340883615
 O          4.1556100756        1.1469029621       -1.2001830240
 C          2.8524428063        1.2661352427       -1.6539205457
 O          2.7508938268        1.7732631264       -2.7891116443
 O          1.1359430669        0.0063784470        1.2803549656
 C          0.4033130129        1.0070740681       -1.3713729828
 C         -0.4825010503        1.6483511131       -0.3314221541
 C         -0.0889856313        2.8649681505        0.2219430230
 C         -0.8628523850        3.4900769983        1.1787865829
 C         -2.0625313574        2.9309684811        1.5849343591
 C         -2.4703574204        1.7255075114        1.0307948656
 C         -1.6785185351        1.0881422644        0.0853680133
 H         -2.0036286738        0.1405667033       -0.3087773542
 N         -3.6784297879        1.1234200674        1.4162417915
 S         -4.6692646877        0.4726499214        0.2352843865
 O         -4.5621153074        1.2014931717       -1.0077392521
 O         -5.9852218636        0.4383293816        0.8382540057
 C         -4.0986385816       -1.1991132360        0.0164864467
 C         -3.9845425128       -1.7091968154       -1.2616013319
 C         -3.5831152953       -3.0257288869       -1.4254888325
 C         -3.3052361580       -3.8052932220       -0.3129134067
 C         -3.4248837540       -3.2774638755        0.9638263785
 C         -3.8289396849       -1.9631079770        1.1344069424
 H         -3.9320666571       -1.5203654134        2.1108466168
 H         -3.2034584119       -3.8859535188        1.8257639936
 H         -2.9900083859       -4.8287217046       -0.4426512195
 H         -3.4869493713       -3.4364079400       -2.4181878872
 H         -4.2012169472       -1.0643211491       -2.0985368495
 H         -4.2084648953        1.6379091389        2.1045353791
 H         -2.6733008344        3.4215210418        2.3278921973
 H         -0.5366837001        4.4263351150        1.6067859857
 H          0.8439947294        3.3074369153       -0.1019056003
 H          0.5056293347        1.7238053319       -2.2038867293
 C         -0.1911507065       -0.2627409810       -1.9632423659
 C          0.6870630212       -1.3374131641       -2.5293385391
 C         -0.0865117271       -1.5876398925       -1.2715316887
 H         -0.9348263652       -2.2550739197       -1.3132370420
 H          0.4448608389       -1.6159344660       -0.3339665468
 H          0.3716130913       -1.8294775065       -3.4369987971
 H          1.7563153000       -1.1985829560       -2.4582092325
 H         -1.1132432102       -0.0637070770       -2.5020596294
