  62
        -98.94073995
 C         -1.7247693895       -0.2189448099       -0.6514241604
 C         -2.9308736995        0.1005548598       -1.3269474505
 C         -4.1773285995       -0.2596054204       -0.6388408706
 C         -4.1123362195       -0.9096124204        0.5368940994
 C         -5.2981667595       -1.2795123007        1.3789300593
 C         -5.6289556298       -0.1688671907        2.3859779692
 C         -5.7087585301        1.2256428993        1.7643635492
 H         -5.9774202503        1.9217522592        2.5619047091
 H         -4.7169572401        1.5142210495        1.4084641993
 C         -6.7172383400        1.3516132790        0.6137569791
 H         -7.4218866598        0.5199074888        0.6467024990
 H         -7.2924920202        2.2695018189        0.7517954290
 C         -6.0864694799        1.4261931591       -0.7780249709
 H         -5.3144800201        2.1998898693       -0.7891166508
 H         -6.8618883399        1.7284028989       -1.4868294610
 C         -5.4706969695        0.1225987092       -1.3017458708
 H         -6.1989751494       -0.6868306509       -1.2212649908
 H         -5.2329660495        0.2683221693       -2.3595488208
 H         -6.5789622698       -0.4100442109        2.8663333891
 H         -4.8528733799       -0.1570285405        3.1550681493
 H         -6.1536250094       -1.4649853009        0.7322511392
 H         -5.0608752093       -2.1942456406        1.9247490193
 O         -2.9399690094       -1.2676135201        1.1181098395
 C         -1.7157317895       -0.9296564598        0.5497864196
 O         -0.7343817694       -1.3284233096        1.2035031197
 H          2.0133359804        0.0349395110       -0.0275402501
 C          1.7805687706       -0.8464808890       -0.5997548301
 C          0.5757739507       -0.9377470193       -1.2786231502
 C          0.2815263011       -2.1134907194       -1.9643071802
 C          1.1647382313       -3.1748899492       -1.9548799401
 C          2.3668302312       -3.0803504089       -1.2762296199
 C          2.6748602209       -1.9084147388       -0.5951017199
 N          3.9143690408       -1.7721426685        0.0383838602
 S          4.2346351804       -0.6678272584        1.2430969302
 O          5.5638242404       -1.0298377581        1.6920258303
 O          3.2185884203       -0.6335748086        2.2676909101
 C          4.3134751101        0.8995714416        0.4000700301
 C          3.8380551398        2.0235349015        1.0460649001
 C          3.9127137096        3.2502950715        0.4052322300
 C          4.4625706197        3.3316726316       -0.8646513899
 C          4.9429043800        2.1949595817       -1.4969819298
 C          4.8722485502        0.9657409817       -0.8608634598
 H          5.2322683005        0.0632771317       -1.3255716397
 H          5.3699749501        2.2625815718       -2.4845778198
 H          4.5157195395        4.2866109716       -1.3632719899
 H          3.5401568393        4.1349426314        0.8970889800
 H          3.4086583697        1.9098926814        2.0293867600
 H          4.4687468810       -2.6108268484        0.1149527402
 H          3.0591400914       -3.9083224388       -1.2681188299
 H          0.9180780316       -4.0852465093       -2.4804735501
 H         -0.6590129489       -2.1880156697       -2.4933408303
 C         -0.4227858795        0.1902341004       -1.3162121203
 H         -0.6987331795        0.3601477303       -2.3707522903
 C          0.1443282001        1.5049798006       -0.8006902003
 C         -0.7580023202        2.5879510904       -0.2924866104
 C          0.1446740099        1.8591672906        0.6548722297
 H          1.0016303297        2.3820603508        1.0529447398
 H         -0.2854602000        1.1484561305        1.3439374497
 H         -0.5230539204        3.6111734404       -0.5431383304
 H         -1.8172326802        2.3796373201       -0.2524656005
 H          1.0054530501        1.8288780708       -1.3779123102
 O         -2.9617980595        0.6601390898       -2.4550399405
