  62
        -98.94284864
 C         -0.7031702459       -1.4026758168        0.5735174120
 C         -1.1868664233       -0.7515191262       -0.5834614838
 C         -2.2280199710        0.2725394403       -0.3721503348
 C         -2.5577061014        0.6256476030        0.8838922701
 C         -3.5369690155        1.6567294517        1.4074208967
 C         -4.5580494177        2.3025208381        0.4743853296
 C         -5.6504132552        1.3553069773       -0.0245736072
 H         -6.3161057842        1.1269702845        0.8116844179
 H         -6.2378341849        1.8774159888       -0.7826937866
 C         -5.1658293351        0.0254041259       -0.5976835564
 H         -4.6317230665       -0.5330783813        0.1737922155
 H         -6.0476360052       -0.5625769130       -0.8665600328
 C         -4.2815575714        0.1289781266       -1.8384547231
 H         -4.8053511974        0.6884298676       -2.6159049851
 H         -4.1152774250       -0.8854695076       -2.2106519478
 C         -2.9054947234        0.7774299487       -1.6134030755
 H         -2.9859053486        1.8597403310       -1.6054378144
 H         -2.2550028108        0.4986188435       -2.4470491332
 H         -4.0566019267        2.7828141574       -0.3604619720
 H         -5.0470671423        3.0948380989        1.0477182178
 H         -4.0665875097        1.1730306803        2.2347076794
 H         -2.9258421269        2.4456254854        1.8605572397
 O         -1.9485126018        0.0669163920        1.9737995823
 C         -1.0656195869       -0.9907539621        1.8533579681
 O         -0.6770836305       -1.4661048106        2.9407793554
 O         -0.7869991872       -1.0205064653       -1.7450994949
 C          0.2470903813       -2.5786022577        0.4452729325
 C          1.5273504187       -2.1550705875       -0.2309406238
 C          2.1009576841       -2.8456745972       -1.2905392245
 C          3.2930734370       -2.4118557543       -1.8440126927
 C          3.9359583442       -1.2903035216       -1.3545233532
 C          3.3735964558       -0.5974945688       -0.2874714019
 C          2.1784546810       -1.0309401611        0.2626794692
 H          1.7529204741       -0.4943156900        1.0990108989
 N          4.0137957410        0.5290942231        0.2490729000
 S          3.1399134985        1.7717717131        0.9248316982
 O          4.0608673590        2.8904195875        0.9225131599
 O          2.6293438947        1.3934951315        2.2192350739
 C          1.7973184691        2.1401127092       -0.1901866468
 C          0.5904518689        2.5390988958        0.3452446710
 C         -0.4220420375        2.9466521043       -0.5076100387
 C         -0.2157546379        2.9344076110       -1.8776367945
 C          0.9950898805        2.5125611926       -2.4019212807
 C          2.0170423870        2.1215260415       -1.5529501213
 H          2.9720257879        1.8055160064       -1.9393727644
 H          1.1480409015        2.4921164993       -3.4687490594
 H         -1.0027905360        3.2542187227       -2.5417879614
 H         -1.3633557216        3.2739767882       -0.0967666723
 H          0.4665876181        2.5184657624        1.4172993575
 H          4.8227857614        0.8564735044       -0.2573917467
 H          4.8671958055       -0.9547925872       -1.7843925054
 H          3.7267968201       -2.9545559861       -2.6699166617
 H          1.6149334123       -3.7223448587       -1.6849811203
 H          0.4984853173       -2.8751623961        1.4748117102
 C         -0.4508186111       -3.7357452443       -0.2397038841
 C         -0.0410259316       -5.1460818565        0.0565769218
 C         -1.3467306920       -4.6210341566        0.5713397697
 H         -2.2616111097       -4.9796175825        0.1239470656
 H         -1.4334446660       -4.4048475458        1.6267158303
 H         -0.0622927110       -5.8698839297       -0.7440670783
 H          0.7587578111       -5.2954602376        0.7662111066
 H         -0.7683292680       -3.4934727854       -1.2472021446
