  62
        -98.94044369
 C         -0.1313017371        2.0942189528       -0.1307374659
 C          0.9073497556        2.0240240491        0.8262480994
 C          2.1819284150        1.4283291874        0.3828156018
 C          2.3042634498        1.0357521740       -0.8976769999
 C          3.4759520662        0.3587550024       -1.5588221520
 C          4.0173958568       -0.8705893020       -0.8103600545
 C          5.4198300920       -0.6546584141       -0.2418215563
 H          5.8921038005       -1.6283609021       -0.0944545919
 H          6.0152106836       -0.1095042474       -0.9771108266
 C          5.4616640784        0.0849793452        1.0940346650
 H          5.0730686633       -0.5691922432        1.8781867923
 H          6.5100604645        0.2854123241        1.3279364566
 C          4.6888338844        1.4058709874        1.1470399974
 H          4.8102225754        1.9633647606        0.2197525064
 H          5.1296841824        2.0115455034        1.9420339617
 C          3.1985967181        1.2442468342        1.4762638449
 H          3.0172049676        0.2648795957        1.9349877779
 H          2.9145360267        1.9780398209        2.2382555429
 H          3.3271224381       -1.1517862611       -0.0135793311
 H          4.0559852135       -1.7064449100       -1.5106611774
 H          3.1232815824        0.0670094953       -2.5498565249
 H          4.2753006965        1.0866175776       -1.7085245371
 O          1.3061647317        1.2108958910       -1.8102045383
 C          0.0515265897        1.6771084019       -1.4473856036
 O         -0.7811723345        1.6713385517       -2.3721014969
 O          0.7701523087        2.4275399838        2.0137442823
 C         -1.5146092101        2.5264725371        0.3232584565
 C         -2.4167543937        1.3151513150        0.2835784394
 C         -3.6105729920        1.2608157272       -0.4225622669
 C         -4.3625940222        0.0981004864       -0.4338149294
 C         -3.9389063349       -1.0286412249        0.2458675338
 C         -2.7490314885       -0.9824422145        0.9653247944
 C         -2.0074630318        0.1871223707        0.9871727658
 H         -1.0890610784        0.2161848012        1.5560666540
 N         -2.2994340894       -2.1054266885        1.6850068954
 S         -0.7262700182       -2.6440807692        1.5088368562
 O         -0.7198723939       -3.9428486995        2.1463665931
 O          0.2025864223       -1.6740929090        2.0284460593
 C         -0.5077452300       -2.8347511381       -0.2481490023
 C         -0.0473371154       -1.7590965968       -0.9779971259
 C          0.0548438027       -1.8737652853       -2.3547004775
 C         -0.3006479809       -3.0622943875       -2.9734414890
 C         -0.7552756729       -4.1385843519       -2.2255343987
 C         -0.8680877656       -4.0249772967       -0.8494330568
 H         -1.2117385974       -4.8370073118       -0.2292252396
 H         -1.0258838543       -5.0618453749       -2.7120131221
 H         -0.2207795567       -3.1473726108       -4.0457102807
 H          0.3960448725       -1.0259897742       -2.9281061890
 H          0.2233863903       -0.8522084189       -0.4603919940
 H         -2.9339409575       -2.8911163101        1.6539052644
 H         -4.5229789288       -1.9361655606        0.2279087211
 H         -5.2876409659        0.0671935487       -0.9889203466
 H         -3.9494839627        2.1253727629       -0.9686061316
 H         -1.3952623031        2.8240703969        1.3756053697
 C         -2.0278663088        3.7107258230       -0.4646258319
 C         -3.0695124908        4.6077335493        0.1326245760
 C         -1.6598835428        5.0927081772       -0.0176510667
 H         -1.4459002521        5.8371844727       -0.7696608955
 H         -1.0509843568        5.1829022586        0.8703243891
 H         -3.8254651342        5.0241364648       -0.5156080122
 H         -3.4206407442        4.3722789443        1.1260109577
 H         -2.0603623067        3.5245606064       -1.5314815656
