  62
        -98.93519193
 C          2.1615355007        0.8290730891        0.2700981894
 C          2.8233991608       -0.0854316008        1.1269350394
 C          3.6364507205       -1.1191584111        0.4753390694
 C          3.6486230201       -1.1912108814       -0.8680272905
 C          4.4600379697       -2.1681957617       -1.6675617706
 C          5.8333899997       -1.5845363420       -2.0278364710
 C          6.5741259601       -0.9718806518       -0.8391968614
 H          6.0236985204       -0.0950954917       -0.4905500414
 H          7.5410729701       -0.6200997521       -1.2051064417
 C          6.7919202903       -1.9337771616        0.3371880088
 H          7.8208558404       -1.8302270117        0.6879570285
 H          6.6662694701       -2.9637930817        0.0016355690
 C          5.8840922207       -1.6799091312        1.5422484890
 H          5.9353432209       -0.6249940312        1.8234754787
 H          6.2669565308       -2.2620184011        2.3847143290
 C          4.4085003806       -2.0580190810        1.3592342694
 H          3.9276042108       -2.0096707008        2.3407660296
 H          4.3332248503       -3.0836870711        0.9918887097
 H          5.6911062097       -0.8062581421       -2.7810130112
 H          6.4402293695       -2.3775926922       -2.4684131210
 H          4.5811973698       -3.0859390216       -1.0951880704
 H          3.9167364695       -2.3938146618       -2.5868205604
 O          2.9483534300       -0.3409054214       -1.6576969805
 C          2.2051169603        0.7041700688       -1.1199555306
 O          1.6510285602        1.4144778087       -1.9752836006
 H         -0.4079211189        0.2609569098        1.8770091502
 C         -0.8542523091        0.8449334597        1.0808108302
 C         -0.0863766691        1.8237599895        0.4537241498
 C         -0.6705976692        2.5346236093       -0.5872372602
 C         -1.9779130294        2.2803183995       -0.9671417798
 C         -2.7335777594        1.3122684297       -0.3336136994
 C         -2.1575380592        0.5783299498        0.6944680006
 N         -2.9117842392       -0.4224599599        1.3390521310
 S         -3.5637043196       -1.6244505400        0.3594532015
 O         -3.7420413696       -2.7665354198        1.2301599618
 O         -2.7602373400       -1.8368593804       -0.8231571587
 C         -5.1633231497       -0.9842405299       -0.0902662682
 C         -5.4920414300       -0.8299748001       -1.4228053082
 C         -6.7434589500       -0.3316013500       -1.7506902280
 C         -7.6388675497        0.0008203704       -0.7456238878
 C         -7.2943269993       -0.1633794194        0.5879049622
 C         -6.0455792193       -0.6622330795        0.9226043619
 H         -5.7396038591       -0.8091017993        1.9448642019
 H         -7.9936115491        0.0960745609        1.3663025523
 H         -8.6109446797        0.3902973805       -1.0037378476
 H         -7.0125574502       -0.2036159501       -2.7869116779
 H         -4.7598903702       -1.0952663503       -2.1690215183
 H         -2.4300050290       -0.8417877998        2.1222223810
 H         -3.7489444795        1.1121173998       -0.6339243791
 H         -2.4105698095        2.8446886294       -1.7792435998
 H         -0.1060480493        3.2649000691       -1.1371745305
 C          1.3414308811        1.9348346593        0.9259505294
 H          1.3356198913        1.6555652996        1.9918134195
 C          2.0749693913        3.2679977392        0.8761203489
 C          2.2738496911        4.1157521589       -0.3427491313
 C          1.3997297914        4.6019602593        0.7745434188
 H          1.7703153917        5.4046532594        1.3946932186
 H          0.3320194314        4.6193766594        0.6267979791
 H          1.8372363308        3.7879807788       -1.2715355311
 H          3.2418518411        4.5799088988       -0.4705464216
 H          2.9334916814        3.2242900592        1.5428343987
 O          2.7379138412       -0.0373381506        2.3853050895
