  62
        -98.93659967
 C         -2.5699810302       -0.4238890199        0.0621091412
 C         -2.6398907050        0.6732761244        0.9476911724
 C         -2.4873114669        2.0192563572        0.3634862874
 C         -2.2621396338        2.1269109427       -0.9593247951
 C         -2.0374466223        3.3741641300       -1.7731803481
 C         -0.6276983926        3.9542652334       -1.5889260202
 C         -0.1611906884        4.0539998045       -0.1396199900
 H         -0.1364553195        3.0512942698        0.2921721111
 H          0.8701917618        4.4166836896       -0.1523600749
 C         -0.9770607874        4.9919530798        0.7478566732
 H         -0.4619704772        5.0528662298        1.7098719252
 H         -0.9743280835        5.9908374512        0.3061037703
 C         -2.4274951121        4.5811286408        1.0154458424
 H         -3.0720580624        4.8326774707        0.1775030769
 H         -2.7800582780        5.1713474571        1.8662504455
 C         -2.6125447691        3.1157160859        1.3940883090
 H         -3.6094136174        2.9902017583        1.8336553075
 H         -1.9107672999        2.8601730129        2.1964656071
 H         -0.5979996111        4.9408971350       -2.0554823887
 H          0.0775362883        3.3052644545       -2.1151623715
 H         -2.1602357295        3.0880267331       -2.8203294137
 H         -2.7940314354        4.1176980807       -1.5404675230
 O         -2.1763934621        1.0355280347       -1.7738203087
 C         -2.3025593222       -0.2536919560       -1.2957853461
 O         -2.1743574806       -1.1416958567       -2.1610045710
 O         -2.8150419367        0.5396964712        2.1912175548
 C         -2.6643720697       -1.8344808739        0.6194586821
 C         -1.3353028964       -2.5108720256        0.3907993303
 C         -1.1751392703       -3.7291561067       -0.2548315173
 C          0.0916326396       -4.2270044389       -0.5127159733
 C          1.2218886843       -3.5243175668       -0.1359160328
 C          1.0687631522       -2.3228985459        0.5390931324
 C         -0.1959445060       -1.8323557341        0.8066473456
 H         -0.3020023849       -0.8786054559        1.3107070839
 N          2.2263457706       -1.5619228388        0.8840354141
 S          2.5412637309       -0.4124581688       -0.3236709234
 O          1.6972520256        0.7495818592       -0.1347419604
 O          2.4654917013       -1.0719669274       -1.6022651479
 C          4.2373337846       -0.0005991244        0.0427103295
 C          4.5426490012        1.1928256702        0.6665111339
 C          5.8658170211        1.4671410416        0.9771365875
 C          6.8534484189        0.5457830112        0.6648071540
 C          6.5305043147       -0.6493887665        0.0389160746
 C          5.2104596646       -0.9283523022       -0.2752779327
 H          4.9105315257       -1.8386524976       -0.7671054780
 H          7.3014177582       -1.3629112541       -0.2034466406
 H          7.8816160735        0.7609821294        0.9094242601
 H          6.1193629163        2.3962324843        1.4618401417
 H          3.7420355515        1.8808263890        0.8865654266
 H          2.0714697430       -1.0405696714        1.7389605379
 H          2.2120208180       -3.8820115234       -0.3651650403
 H          0.1975376685       -5.1672764296       -1.0321008996
 H         -2.0433023674       -4.2788097936       -0.5801775050
 H         -2.8133077733       -1.7136365532        1.7027173135
 C         -3.8445044512       -2.5816410447        0.0396909330
 C         -4.4608181026       -3.7152233221        0.8025813579
 C         -5.1920551663       -2.4140030474        0.6730424993
 H         -6.0594890883       -2.3689142421        0.0320464940
 H         -5.2561111759       -1.7723867811        1.5397342905
 H         -4.8303362175       -4.5665272595        0.2514753959
 H         -4.0318750177       -3.9618680176        1.7618910772
 H         -3.8035029512       -2.6495224297       -1.0414260655
