  62
        -98.93350460
 C         -2.4215046373       -1.0847402085        0.3678291358
 C         -2.4528393331        0.1005894030        1.1458225412
 C         -3.6065085721        0.9974006830        0.9580968003
 C         -4.5659041208        0.6453137054        0.0850007632
 C         -5.8022323932        1.4148484306       -0.2912023107
 C         -5.5462207946        2.2910576541       -1.5289897352
 C         -4.9856744832        3.6803958873       -1.2287689913
 H         -4.7361180338        4.1446326155       -2.1855425142
 H         -5.7634222179        4.2882594416       -0.7618889448
 C         -3.7441566115        3.7036010835       -0.3333776013
 H         -3.0528523088        2.9156177273       -0.6392288058
 H         -3.2341682005        4.6561693166       -0.4901751937
 C         -4.0737554225        3.5563427688        1.1595764567
 H         -5.1473379256        3.6757600793        1.3031072595
 H         -3.5946752430        4.3636666337        1.7175942613
 C         -3.6092768471        2.2425994721        1.8029054808
 H         -2.5732385137        2.3498191729        2.1406938012
 H         -4.2087446726        2.0528266429        2.7000264390
 H         -4.8593099737        1.7509240864       -2.1855247310
 H         -6.4862759504        2.4156282588       -2.0700818548
 H         -6.5622391064        0.6722146851       -0.5425340584
 H         -6.1567254955        2.0088436327        0.5457186406
 O         -4.5010894911       -0.5029358471       -0.6399150141
 C         -3.4425086724       -1.3890505061       -0.5327666680
 O         -3.5523616846       -2.3809094723       -1.2792050151
 O         -1.5507895718        0.3972119538        1.9774353178
 C         -1.2314037885       -2.0068352927        0.5722939685
 C         -0.1956684584       -1.8301635201       -0.5131328795
 C         -0.4538906826       -2.1862892380       -1.8330167715
 C          0.5175621991       -2.0200462462       -2.8027692343
 C          1.7580385099       -1.4997888988       -2.4791892721
 C          2.0288138345       -1.1461369795       -1.1621438666
 C          1.0513732901       -1.3131345078       -0.1907568227
 H          1.2650885877       -1.0169843571        0.8254961385
 N          3.3001590899       -0.6637900020       -0.8063761506
 S          3.4504622352        0.4815909933        0.4240612990
 O          3.2997065861       -0.1792554822        1.6956566116
 O          2.5803764292        1.6079514652        0.1683934096
 C          5.1564447309        0.9475683560        0.1947851256
 C          5.4649795759        2.1393066670       -0.4326415324
 C          6.7973969358        2.4697720679       -0.6261204027
 C          7.7925802690        1.6061298557       -0.1943495418
 C          7.4672897399        0.4133833616        0.4348875160
 C          6.1376012096        0.0779051519        0.6329690620
 H          5.8369046073       -0.8325407526        1.1244634751
 H          8.2438141220       -0.2543240805        0.7715280273
 H          8.8283402563        1.8654179564       -0.3467000120
 H          7.0531532314        3.3977054138       -1.1117289598
 H          4.6575404818        2.7820091321       -0.7450194739
 H          3.8524900371       -0.4012886865       -1.6119721118
 H          2.5136641893       -1.3713631315       -3.2393873892
 H          0.3044184784       -2.2951949349       -3.8248041033
 H         -1.4260937258       -2.5760869432       -2.0916066956
 H         -0.7749583342       -1.6764185703        1.5159169856
 C         -1.6163639510       -3.4670098839        0.7140234232
 C         -0.6563559003       -4.4036115096        1.3814382897
 C         -1.9277866226       -4.0142567241        2.0728956769
 H         -2.7138229540       -4.7487134894        2.1638208321
 H         -1.8653021995       -3.3351925449        2.9111498915
 H         -0.5663023202       -5.4081695934        0.9979882322
 H          0.2693227131       -3.9875887596        1.7509580419
 H         -2.1951792185       -3.8441273295       -0.1185639927
