  62
        -98.94522659
 C          2.4649453960        1.1909408533       -0.0152217688
 C          3.2480318101        0.4547008147        0.9046459175
 C          3.9220700565       -0.7352634866        0.3688507401
 C          3.7585807010       -1.0548742449       -0.9282084785
 C          4.3343017725       -2.2733804142       -1.5888286942
 C          3.3559186728       -3.4544775795       -1.5198933970
 C          2.7900837390       -3.7071365201       -0.1222019878
 H          2.1602211106       -2.8608851930        0.1642754750
 H          2.1361464042       -4.5797074111       -0.1883896488
 C          3.8529110628       -3.9418627617        0.9607389920
 H          3.5473162713       -4.7944282152        1.5708369578
 H          4.8038041320       -4.2010854740        0.4942433286
 C          4.0606449653       -2.7628665834        1.9132427758
 H          4.6643296312       -3.1095980052        2.7560054117
 H          3.0953110048       -2.4418902330        2.3134427283
 C          4.7672975620       -1.5386677596        1.3173108660
 H          5.0144524660       -0.8644345126        2.1425653632
 H          5.6967562904       -1.8489628919        0.8362621504
 H          2.5198793327       -3.2531969300       -2.1943569311
 H          3.8695060416       -4.3503934711       -1.8731747130
 H          4.5298893541       -2.0368586888       -2.6359551698
 H          5.2721515855       -2.5358320689       -1.1032246984
 O          2.9994654101       -0.3225213887       -1.7829462706
 C          2.3225998648        0.8090126235       -1.3495933060
 O          1.6488107774        1.3738044642       -2.2311590613
 H          0.3221788417        0.2635598288        1.1472044768
 C         -0.3221253750        1.0109622889        0.6989056385
 C          0.2312410543        2.2166415654        0.2843685761
 C         -0.6071488240        3.1648116996       -0.2859226199
 C         -1.9560277590        2.8990142054       -0.4502078003
 C         -2.4983326240        1.6929648309       -0.0471737968
 C         -1.6701728296        0.7395453505        0.5309319285
 N         -2.2127707650       -0.4901545011        0.9512912857
 S         -3.0576181149       -1.3896698168       -0.1924253449
 O         -2.9405836452       -2.7630485019        0.2488094670
 O         -2.6065412147       -1.1030719727       -1.5344600460
 C         -4.7424294749       -0.8547386109        0.0192445992
 C         -5.3286393979       -1.0294113196        1.2576567122
 C         -6.6383039572       -0.6161462290        1.4419706309
 C         -7.3359701875       -0.0404424494        0.3903792693
 C         -6.7344014867        0.1242974144       -0.8479122715
 C         -5.4241254877       -0.2866293974       -1.0388969306
 H         -4.9129989243       -0.1753651459       -1.9821446297
 H         -7.2783814682        0.5711343617       -1.6644984634
 H         -8.3550353963        0.2811613631        0.5363781454
 H         -7.1097907939       -0.7434289432        2.4030858989
 H         -4.7523901711       -1.4854351220        2.0452071745
 H         -1.5419888582       -1.0805432839        1.4226153319
 H         -3.5462518243        1.4798889440       -0.1807445914
 H         -2.5939995314        3.6428381730       -0.9024817764
 H         -0.2029178466        4.1081691016       -0.6138691053
 C          1.7152527903        2.4177057130        0.4727027646
 H          1.9193588437        2.4746203817        1.5525864185
 C          2.2505605983        3.6688784581       -0.1902823107
 C          2.1809649513        4.9877281151        0.5182275424
 C          3.4992503772        4.2955677531        0.3513965211
 H          4.2149137361        4.7041339208       -0.3460767090
 H          3.9499600548        3.8328957232        1.2173388332
 H          1.9936807324        5.8766797677       -0.0648412032
 H          1.7387330774        5.0031701251        1.5027573077
 H          2.1241729559        3.6546416725       -1.2670106942
 O          3.3698000472        0.7722034459        2.1191618178
