  62
        -98.93931048
 C          2.4686771989        0.2110539896        0.0904551398
 C          3.5091312192        0.2920233700        1.0460702694
 C          4.7794438591       -0.3327285902        0.6626481393
 C          4.8861376787       -0.9496305807       -0.5285805004
 C          6.1087189085       -1.6537992910       -1.0520776505
 C          7.1338734784       -0.7211040813       -1.7118856512
 C          7.9227533787        0.1666451291       -0.7484039819
 H          8.3579149089       -0.4500952105        0.0385854483
 H          8.7484497885        0.6003404488       -1.3160141323
 C          7.1045402289        1.3039233894       -0.1210599321
 H          6.1898094987        1.4561760292       -0.6985439519
 H          7.6743346289        2.2344289194       -0.1726845427
 C          6.7317577093        1.0816550401        1.3446307181
 H          7.6373769995        1.0610909803        1.9549410578
 H          6.1217908995        1.9260678902        1.6755857779
 C          5.9387225094       -0.2056578498        1.6044368689
 H          6.5926337593       -1.0737545598        1.5236245891
 H          5.5376750497       -0.1625865393        2.6202187790
 H          6.6167750282       -0.0956923716       -2.4431636913
 H          7.8429139382       -1.3502056515       -2.2549789212
 H          6.5867621988       -2.2078186706       -0.2435608904
 H          5.7587408383       -2.3663702313       -1.8020887101
 O          3.8549654885       -1.0227991711       -1.4122290901
 C          2.6280350086       -0.4360421009       -1.1349070700
 O          1.7817158583       -0.5622413713       -2.0398636397
 H         -1.4599715212        1.1073684295       -0.4538991894
 C         -1.2519038311        0.1264346897       -0.0552399490
 C          0.0202459390       -0.1746537002        0.4070770007
 C          0.2490890592       -1.4425192799        0.9339351312
 C         -0.7571935009       -2.3888901799        0.9660105919
 C         -2.0196874210       -2.0905596101        0.4854670822
 C         -2.2670359811       -0.8225101803       -0.0204965783
 N         -3.5511110913       -0.5104883205       -0.4994281881
 S         -4.8584404010       -1.0371345000        0.4351659526
 O         -4.5634705106       -0.8563041594        1.8385163124
 O         -5.1988506111       -2.3785017602        0.0312007833
 C         -6.1350922211        0.0956145398       -0.0789132075
 C         -6.2958105909        1.2784535501        0.6183581520
 C         -7.2714194710        2.1721841299        0.2062354619
 C         -8.0638749213        1.8707852595       -0.8914216677
 C         -7.8910251916        0.6795861992       -1.5804627273
 C         -6.9174874315       -0.2191075007       -1.1735292272
 H         -6.7526503416       -1.1598401409       -1.6724287268
 H         -8.5113417818        0.4479484888       -2.4311974570
 H         -8.8231166614        2.5677863994       -1.2093427978
 H         -7.4102945708        3.0974759102        0.7419040815
 H         -5.6651250606        1.4665295205        1.4726329517
 H         -3.6421885713        0.4634686194       -0.7542852685
 H         -2.8164580010       -2.8169813100        0.5074794027
 H         -0.5582088308       -3.3701081497        1.3711143623
 H          1.2318439593       -1.6811564098        1.3177229010
 C          1.1311774591        0.8477463298        0.4119166499
 H          1.2315634194        1.2276724903        1.4406728897
 C          0.8765278188        2.0189204794       -0.5158243305
 C          0.1276718490        3.2257911096       -0.0364205108
 C          1.6058415589        3.3043217195       -0.2684650713
 H          1.9687583787        3.8638235091       -1.1175293617
 H          2.2583228892        3.3441174699        0.5916242185
 H         -0.5237793512        3.7375364793       -0.7291151708
 H         -0.2229968007        3.2246880201        0.9847622093
 H          0.7462079085        1.7077731390       -1.5464511103
 O          3.3788810496        0.8530438805        2.1678236892
