  62
        -98.94160877
 C         -2.1060239552       -0.8623595369        0.2815640752
 C         -2.9595568162       -0.2229857646        1.2161036961
 C         -3.7051876890        0.9435847374        0.7258543279
 C         -3.4904623722        1.3781025956       -0.5289847171
 C         -4.2134635021        2.5228477166       -1.1761786944
 C         -5.4704791864        2.0397963947       -1.9133841837
 C         -6.3647656480        1.1254011471       -1.0759324223
 H         -7.2343483049        0.8734658831       -1.6866122558
 H         -5.8323078880        0.1927319597       -0.8757358782
 C         -6.8320368802        1.7371109138        0.2522589173
 H         -7.8981513899        1.5352924493        0.3746715269
 H         -6.7085223700        2.8203193393        0.2247157180
 C         -6.1283428695        1.1786346430        1.4905448371
 H         -6.6781679896        1.5134179709        2.3740648866
 H         -6.1700079078        0.0865587179        1.4742178640
 C         -4.6658318043        1.6028192097        1.6752421863
 H         -4.5865796560        2.6900484176        1.6098128051
 H         -4.3538168264        1.2952934824        2.6777906329
 H         -5.1584648101        1.4915046537       -2.8053402984
 H         -6.0392652668        2.9144390303       -2.2339949022
 H         -4.4831650223        3.2525121060       -0.4148730680
 H         -3.5384511996        2.9929699669       -1.8936128542
 O         -2.6077115902        0.7875713312       -1.3728648596
 C         -1.8964595847       -0.3474950810       -0.9994673565
 O         -1.1328565274       -0.7739760513       -1.8842337439
 H          0.2501434994       -0.1234186428        1.5541516691
 C          0.7942824967       -0.8193746141        0.9258311528
 C          0.1267981384       -1.9245349086        0.4108047489
 C          0.8298780597       -2.8013076412       -0.4033816893
 C          2.1620813793       -2.5664363209       -0.6969926578
 C          2.8205821486       -1.4639305803       -0.1850704514
 C          2.1258558073       -0.5788232411        0.6291807331
 N          2.7889560746        0.5437765558        1.1614342492
 S          3.5739180167        1.5667135179        0.0824346302
 O          3.6282173137        2.8472782346        0.7555843766
 O          2.9515586119        1.5524863175       -1.2211405450
 C          5.2200601632        0.8948802242       -0.0141222198
 C          5.7482344661        0.5440238192       -1.2409886451
 C          7.0342169881        0.0287511706       -1.2938935572
 C          7.7648604167       -0.1243694062       -0.1255517130
 C          7.2205558340        0.2355392055        1.0984511768
 C          5.9361340809        0.7520914981        1.1583604265
 H          5.4771438110        1.0472868188        2.0870161325
 H          7.7919764909        0.1149447988        2.0046155522
 H          8.7645725282       -0.5267492177       -0.1695140022
 H          7.4585846312       -0.2512073869       -2.2446676441
 H          5.1389738579        0.6750618478       -2.1212667337
 H          2.2132797644        1.0857571549        1.7904191636
 H          3.8557661290       -1.2752813344       -0.4182817420
 H          2.6945917196       -3.2510993406       -1.3393857721
 H          0.3278097599       -3.6527736273       -0.8320754257
 C         -1.3327489800       -2.0806989311        0.7560304688
 H         -1.4239754403       -2.0455394773        1.8550278961
 C         -1.9237181881       -3.4123543497        0.3195837347
 C         -3.3910497638       -3.5498648467        0.0468598518
 C         -2.4066329484       -3.6633011489       -1.0763025639
 H         -2.2358670788       -4.6386713505       -1.5082232659
 H         -2.3327931855       -2.8535560152       -1.7848408743
 H         -3.8958473378       -4.4424024913        0.3847492272
 H         -3.9959808211       -2.6565569550        0.1073933606
 H         -1.4511093848       -4.2476527790        0.8271707731
 O         -3.0857656544       -0.6072611292        2.4100930889
