  62
        -98.94038446
 C          0.8967198048        1.1441819299        0.6260866071
 C          1.6215148564        1.0997633853       -0.5871193382
 C          2.5104073310       -0.0598609547       -0.7731804910
 C          2.5607902893       -1.0174302109        0.1710642458
 C          3.3358539080       -2.3168153196        0.2056807074
 C          4.5990991906       -2.4955071807       -0.6355552454
 C          5.7425632335       -1.5381319172       -0.3080909901
 H          6.0950558930       -1.7413069091        0.7061998651
 H          6.5654127843       -1.7512474696       -0.9944609641
 C          5.4021100439       -0.0517832880       -0.3939466220
 H          4.7151511784        0.2160592550        0.4115075983
 H          6.3243630358        0.5116714150       -0.2273038497
 C          4.8083969574        0.4090294751       -1.7251523460
 H          5.4491323184        0.0819422699       -2.5461067326
 H          4.8061194080        1.5020882788       -1.7186535527
 C          3.3649016966       -0.0529926007       -2.0068634089
 H          3.3446048634       -1.0274210000       -2.4892863073
 H          2.9073972902        0.6640835930       -2.6942945997
 H          4.3615073016       -2.4394513824       -1.6937023820
 H          4.9552028543       -3.5113777656       -0.4433990335
 H          3.5812462981       -2.4827038083        1.2587371423
 H          2.6254812679       -3.0992738308       -0.0795357475
 O          1.7978110606       -0.9575003209        1.3013660582
 C          0.9624785222        0.1138341478        1.5616202527
 O          0.3409610550        0.0323441749        2.6408289906
 O          1.5342116841        1.9821122103       -1.4803306085
 C         -0.0540215329        2.2956782270        0.9019053294
 C         -1.1514334106        2.2742157099       -0.1348598877
 C         -1.5065121949        3.3633956956       -0.9182047299
 C         -2.5107895288        3.2424541764       -1.8638245959
 C         -3.1875083963        2.0490059064       -2.0348164793
 C         -2.8455050898        0.9547821258       -1.2471665058
 C         -1.8329557784        1.0761712159       -0.3113803093
 H         -1.5670691204        0.2259985369        0.3005474095
 N         -3.4899841829       -0.2816110108       -1.3991257984
 S         -3.7875201863       -1.2316243338       -0.0556942282
 O         -4.8234022286       -2.1463313724       -0.4898279053
 O         -4.1053751477       -0.4284167693        1.1020844371
 C         -2.2947840499       -2.1631190094        0.2105227486
 C         -1.8228872293       -2.3258511319        1.4974793373
 C         -0.7074344033       -3.1198476459        1.7082848503
 C         -0.0887531749       -3.7361415506        0.6326935267
 C         -0.5667530479       -3.5528715938       -0.6562441335
 C         -1.6836575769       -2.7625199190       -0.8729739922
 H         -2.0873337640       -2.6024601620       -1.8589956075
 H         -0.0753980028       -4.0260682944       -1.4915366201
 H          0.7709726211       -4.3645686087        0.8056486096
 H         -0.3229347975       -3.2420642750        2.7079629687
 H         -2.3222995497       -1.8176899890        2.3073468846
 H         -4.2601414989       -0.2902555293       -2.0517707225
 H         -3.9707983777        1.9591267160       -2.7720025214
 H         -2.7731394581        4.0930687575       -2.4745253404
 H         -0.9925614320        4.3025969225       -0.7973463132
 H         -0.5135334068        2.0847315019        1.8791214858
 C          0.6909841044        3.6102766161        0.9840589705
 C          0.1180906991        4.7476161773        1.7735699732
 C          1.3167206086        4.0082812454        2.2855709135
 H          2.2761360784        4.5031081365        2.2673075469
 H          1.1866418095        3.3394410010        3.1243042219
 H          0.2562045320        5.7533148921        1.4063109821
 H         -0.8272470499        4.5850989560        2.2693700253
 H          1.2365619162        3.8391220034        0.0762922418
