  62
        -98.93162088
 C         -2.7673477167       -0.7314903543       -0.1673484337
 C         -2.3410637352        0.2089180839       -1.1380735678
 C         -2.6149147462        1.6282553646       -0.8300645514
 C         -3.3019447640        1.9418310630        0.2816735390
 C         -3.5954081458        3.3286014985        0.7792136871
 C         -2.3933854728        3.9346881236        1.5400116201
 C         -1.0212723964        3.4065062607        1.1144401536
 H         -0.2948587278        3.7090805010        1.8734071809
 H         -1.0370611823        2.3140866610        1.1176857042
 C         -0.5060744466        3.8996644027       -0.2413815330
 H         -0.0981351813        4.9061884882       -0.1148632142
 H          0.3091902675        3.2375035769       -0.5446893446
 C         -1.5357435923        3.9641133816       -1.3668151549
 H         -1.0451382016        4.4129170785       -2.2358724822
 H         -2.3447702340        4.6332819021       -1.0824567366
 C         -2.0828808864        2.6146391099       -1.8370286904
 H         -2.8712659590        2.7978718906       -2.5779248602
 H         -1.2854969663        2.0766233692       -2.3613444677
 H         -2.4142721929        5.0200326497        1.4358290124
 H         -2.5138480324        3.6951050680        2.5983223488
 H         -3.8895878456        3.9503570856       -0.0628356967
 H         -4.4453453490        3.2570873317        1.4601577572
 O         -3.7647880947        1.0012795039        1.1490601955
 C         -3.4757234652       -0.3378962820        0.9702726104
 O         -3.9139767366       -1.0809626562        1.8728950242
 H         -0.1397490143       -0.7523342098       -0.1796788379
 C         -0.0868022104       -1.6102790027        0.4733481152
 C         -1.1709568436       -2.4698084075        0.5785549270
 C         -1.0766044154       -3.5628454688        1.4323096740
 C          0.0822873594       -3.7939558139        2.1520755707
 C          1.1663455645       -2.9440485078        2.0319716530
 C          1.0768794509       -1.8379170490        1.1928509973
 N          2.1413752074       -0.9295128473        1.0905216014
 S          2.3818541341       -0.1157566298       -0.3713464417
 O          1.5062636112        1.0249790428       -0.4223159569
 O          2.3119474704       -1.0539209217       -1.4685691701
 C          4.0631035140        0.4331284786       -0.1415651740
 C          4.2913007816        1.6184665050        0.5311093481
 C          5.5982372855        2.0295570847        0.7400568644
 C          6.6494114464        1.2521849294        0.2769787713
 C          6.4050694334        0.0657018996       -0.3982625108
 C          5.1003013393       -0.3509938436       -0.6103085555
 H          4.8619032903       -1.2595976732       -1.1396810040
 H          7.2240091713       -0.5346309157       -0.7603729100
 H          7.6654996559        1.5744864899        0.4408401512
 H          5.7914257346        2.9531287974        1.2614215796
 H          3.4419342512        2.1917600352        0.8648201165
 H          3.0075550816       -1.2896498586        1.4669338334
 H          2.0710453242       -3.1240410830        2.5923956372
 H          0.1433439284       -4.6464034813        2.8113997348
 H         -1.9247585658       -4.2230380417        1.5396963993
 C         -2.4277718475       -2.2121786414       -0.2166911832
 H         -3.2545259082       -2.7242985163        0.3029447763
 C         -2.3528096460       -2.7901667945       -1.6217879281
 C         -1.0645465160       -3.0464587864       -2.3379110184
 C         -1.8802032785       -4.1981185918       -1.8368409287
 H         -2.4019889885       -4.8115211008       -2.5557016317
 H         -1.5072968608       -4.7377636717       -0.9796243747
 H         -1.0366068189       -2.8447009229       -3.3979743047
 H         -0.1400276993       -2.7997849328       -1.8372567788
 H         -3.1819553469       -2.4551536390       -2.2367135733
 O         -1.7565695805       -0.0911832494       -2.2107509135
