  62
        -98.94073252
 C         -2.5354623733       -0.3236837508        0.1885833884
 C         -2.5344709094        0.7830259784        1.0735420789
 C         -2.4189524106        2.1112075467        0.4598739246
 C         -2.3077753944        2.2084691088       -0.8768813804
 C         -2.1680655603        3.4951718313       -1.6369408207
 C         -0.6960255889        3.8605913167       -1.8671228102
 C          0.1681230254        3.7977826409       -0.6072240681
 H          0.2727306544        2.7563600371       -0.2917835477
 H          1.1679517214        4.1391887886       -0.8857595107
 C         -0.3474516971        4.6445859256        0.5646920813
 H          0.5002927863        5.1671962823        1.0129680288
 H         -1.0404269108        5.4032851058        0.1980578879
 C         -1.0161176521        3.8462058117        1.6858277858
 H         -0.3740466652        3.0058212961        1.9661194603
 H         -1.1052354082        4.4964277473        2.5606877903
 C         -2.4166803385        3.3014927781        1.3764515776
 H         -2.8562917071        2.9568111151        2.3171903199
 H         -3.0434604920        4.1012945776        0.9760821159
 H         -0.2765998556        3.1655395139       -2.5979084272
 H         -0.6552699554        4.8672524704       -2.2884458651
 H         -2.6568999603        3.3733545455       -2.6053882226
 H         -2.6684550855        4.2891658001       -1.0856084434
 O         -2.2870099468        1.1264691991       -1.6941231184
 C         -2.3521308151       -0.1639081528       -1.1860672249
 O         -2.2502560715       -1.0498458277       -2.0552478799
 O         -2.6278153754        0.6631864580        2.3267603788
 C         -2.5715004374       -1.7132576547        0.8001541897
 C         -1.4042381241       -2.5199587327        0.2855908926
 C         -1.4958965763       -3.8219816978       -0.1848180971
 C         -0.3621144460       -4.4830678981       -0.6286778120
 C          0.8726153637       -3.8633039474       -0.6262115430
 C          0.9722981082       -2.5519701561       -0.1683785226
 C         -0.1559404549       -1.9086900785        0.3058060718
 H         -0.0697313326       -0.8989924379        0.6814320256
 N          2.1988270008       -1.8698927315       -0.2223215767
 S          2.4026795424       -0.3729317873        0.5079784184
 O          2.2145743462       -0.4704585673        1.9407323653
 O          1.5943364157        0.6004076228       -0.1812038775
 C          4.1259367081       -0.0989197042        0.1447577752
 C          5.0808799237       -0.4305790613        1.0871904852
 C          6.4194917944       -0.2413450969        0.7812508473
 C          6.7786171025        0.2714141403       -0.4561345176
 C          5.8088877644        0.6016110059       -1.3913702432
 C          4.4688418744        0.4152450048       -1.0912057783
 H          3.6788640857        0.6644604614       -1.7808501922
 H          6.0910826792        1.0033555548       -2.3511689708
 H          7.8207098838        0.4178132817       -0.6923246681
 H          7.1751966507       -0.4934877188        1.5075512038
 H          4.7534890337       -0.8157850209        2.0394712920
 H          3.0113418093       -2.4642702271       -0.1499226879
 H          1.7500718185       -4.3766530026       -0.9875841773
 H         -0.4452912509       -5.4967493165       -0.9905367683
 H         -2.4531263047       -4.3155838050       -0.2201753936
 H         -2.3970946953       -1.5342848573        1.8760873794
 C         -3.9090598022       -2.4303194514        0.6969244238
 C         -5.1784475821       -1.6739913473        0.4452842849
 C         -4.6353721402       -2.5953838627       -0.6032430362
 H         -5.1547610343       -3.5253019236       -0.7835630770
 H         -4.1824106745       -2.1657496980       -1.4822539017
 H         -6.0661903041       -1.9684439820        0.9848937940
 H         -5.1004197300       -0.6091136287        0.2781908826
 H         -3.9798813495       -3.2556121308        1.3991494370
