  62
        -98.94275775
 C         -0.7490529744       -1.9736288794        0.2346699768
 C         -1.3903388815       -1.1387133314        1.1792287139
 C         -2.6467088861       -0.5161021321        0.7460328733
 C         -3.1254200891       -0.7750546429       -0.4838328253
 C         -4.3902714389       -0.2229958892       -1.0841303878
 C         -4.3884379845        1.2976672907       -1.3385651900
 C         -5.0326013481        2.1226365863       -0.2169951276
 H         -5.6272269372        2.9209641397       -0.6657935197
 H         -5.7266986811        1.4859139794        0.3335309196
 C         -4.0608606050        2.7862489902        0.7636249287
 H         -3.6360059211        3.6776532381        0.2958172038
 H         -4.6340567000        3.1106741986        1.6353758547
 C         -2.8893070212        1.9221607039        1.2315493120
 H         -2.1465510563        1.8577958982        0.4312057274
 H         -2.4019913921        2.4363501266        2.0635363018
 C         -3.2740492575        0.4926095543        1.6638202695
 H         -4.3564417772        0.3749639969        1.6835839675
 H         -2.8857539303        0.2905113294        2.6644640868
 H         -3.3660670718        1.6324263915       -1.5207768967
 H         -4.9522556670        1.4691810978       -2.2571515566
 H         -4.5165960615       -0.7452304234       -2.0346352436
 H         -5.2339124013       -0.4854714487       -0.4417891797
 O         -2.5023272645       -1.6212549123       -1.3478872993
 C         -1.2796773083       -2.1980674377       -1.0355740966
 O         -0.7871454337       -2.8827596836       -1.9528614142
 O         -0.9236459549       -0.9101316393        2.3285832461
 C          0.6244423509       -2.5250694777        0.5633981452
 C          1.6692333829       -1.8947200313       -0.3295367394
 C          2.8427953858       -2.5421623735       -0.6979250634
 C          3.7695500828       -1.9032779577       -1.5039179060
 C          3.5587372925       -0.6109525761       -1.9506921652
 C          2.3890559246        0.0461903741       -1.5859212681
 C          1.4672944959       -0.5971727962       -0.7769895419
 H          0.5538637463       -0.0841886906       -0.5243553991
 N          2.1121503731        1.3445884950       -2.0319246301
 S          1.1617018317        2.3904094543       -1.1442987928
 O         -0.2163977346        1.9661633625       -1.1548464700
 O          1.4246405208        3.6847061278       -1.7370630347
 C          1.8438136084        2.3438537677        0.5026685238
 C          3.0980858774        2.8977033930        0.6789423029
 C          3.6878194174        2.8443915810        1.9304313692
 C          3.0199055512        2.2338606101        2.9820139166
 C          1.7605880382        1.6887302050        2.7911568601
 C          1.1634593178        1.7441060856        1.5411932096
 H          0.1858092640        1.3205336860        1.3755689932
 H          1.2317753950        1.2066762196        3.5980517086
 H          3.4810914129        2.1845569409        3.9558017190
 H          4.6649298142        3.2737495949        2.0823043773
 H          3.5798110142        3.3727625659       -0.1601936255
 H          2.8628773210        1.8138404125       -2.5145171451
 H          4.2805539202       -0.1201854742       -2.5849931883
 H          4.6731372418       -2.4203171670       -1.7889879673
 H          3.0261749017       -3.5496910266       -0.3618440372
 H          0.8280235433       -2.2014744283        1.5962648004
 C          0.6396045973       -4.0390382061        0.5181170355
 C          1.5012296715       -4.8193854623        1.4644855798
 C          0.0144988879       -4.8004813594        1.6476320802
 H         -0.5492201422       -5.6921941313        1.4184764877
 H         -0.3940000400       -4.2247807901        2.4654443313
 H          1.9598241514       -5.7305068628        1.1107479917
 H          2.1019573268       -4.2649996960        2.1696554626
 H          0.4963824649       -4.4252797261       -0.4845025020
