  62
        -98.93214722
 C         -2.3985696982       -0.8603425279        0.7584426699
 C         -3.4519944855       -0.9090503911       -0.1841637435
 C         -4.5801360354        0.0171957508        0.0401274026
 C         -4.5456902265        0.8744726404        1.0763032682
 C         -5.5519261186        1.8952879794        1.5658969010
 C         -6.7306602508        2.3144949535        0.6914310594
 C         -6.3498864779        3.1068605302       -0.5590193208
 H         -7.2510868191        3.2539622401       -1.1582630554
 H         -5.9918525457        4.0920935410       -0.2497474878
 C         -5.2678899595        2.4796489523       -1.4346668813
 H         -5.0869700560        3.1533554932       -2.2767484500
 H         -4.3336912660        2.4116031254       -0.8731618995
 C         -5.6042955217        1.1037293078       -2.0056694013
 H         -6.5516073805        1.1512136234       -2.5464231545
 H         -4.8212634666        0.8455333861       -2.7238936843
 C         -5.6830260677       -0.0377004099       -0.9778997754
 H         -6.6544211534       -0.0651544899       -0.4904541172
 H         -5.5583184589       -0.9823392951       -1.5150755310
 H         -7.3622339363        2.9586250229        1.3093565712
 H         -7.3299871104        1.4483300222        0.4269162572
 H         -5.9452456015        1.4944372433        2.5067108510
 H         -4.9691441999        2.7833571020        1.8305947385
 O         -3.4924884671        0.9035907955        1.9454140434
 C         -2.4113813170        0.0554954897        1.8129377364
 O         -1.5346031187        0.2062623811        2.6882534118
 H          1.1518803217       -0.5190630646        1.1974781321
 C          0.9783780595       -0.6053944980        0.1327668331
 C         -0.1843996935       -1.2159680314       -0.3155559256
 C         -0.4066383843       -1.3036651138       -1.6854950304
 C          0.5170581482       -0.7886857382       -2.5770050731
 C          1.6743741160       -0.1780205468       -2.1270515367
 C          1.9039345944       -0.0814268703       -0.7612032811
 N          3.0655143866        0.5592169167       -0.2923509892
 S          4.5163831071        0.1994114871       -1.0805804106
 O          4.6066953455        1.0181303456       -2.2636580565
 O          4.6258861232       -1.2267210319       -1.2907144296
 C          5.7093643589        0.7452150201        0.1246368592
 C          6.0052297412        2.0928327970        0.2045842756
 C          6.9161553968        2.5222410751        1.1564586936
 C          7.5118425511        1.6029289433        2.0074357641
 C          7.2058057477        0.2536120458        1.9139263877
 C          6.2944428276       -0.1826447519        0.9651248735
 H          6.0328526084       -1.2224400451        0.8505121813
 H          7.6729347955       -0.4587883313        2.5747316939
 H          8.2214360585        1.9397785128        2.7465808576
 H          7.1590803698        3.5699245365        1.2311681342
 H          5.5251683784        2.7691556401       -0.4832688742
 H          3.1642928658        0.4820449746        0.7107519742
 H          2.4035639351        0.2202711814       -2.8143422551
 H          0.3342346777       -0.8624414414       -3.6387842505
 H         -1.3172410526       -1.7577843763       -2.0434795997
 C         -1.1734807356       -1.7592296394        0.6887967541
 H         -0.7074294608       -1.6929599179        1.6812557862
 C         -1.5101797179       -3.2121310554        0.4188985210
 C         -0.4933292260       -4.2613461102        0.7493165907
 C         -1.7381233889       -4.1369489871        1.5746840194
 H         -2.4980871083       -4.8981522275        1.4823162189
 H         -1.6515983500       -3.7256416149        2.5701255348
 H         -0.3950331803       -5.1090423851        0.0888252831
 H          0.4393968534       -3.9340462023        1.1839471395
 H         -2.1204015099       -3.3607109902       -0.4612773738
 O         -3.4842911180       -1.6897230216       -1.1712451887
