  62
        -98.93975786
 C          2.4609108480        0.2523163551        0.2390947578
 C          3.6082384282        0.2048842682        1.0661332781
 C          4.7886558888       -0.4427841227        0.4840075311
 C          4.7179939584       -0.9719036682       -0.7512310103
 C          5.8291873192       -1.6864325453       -1.4716757292
 C          6.8090709009       -0.7503761362       -2.1925839187
 C          7.7541317266        0.0314115774       -1.2792032158
 H          8.2535734422       -0.6589460504       -0.5987193142
 H          8.5225937965        0.4731854257       -1.9166715251
 C          7.0769452531        1.1503504622       -0.4755426717
 H          7.6809482674        2.0585421409       -0.5350579632
 H          6.1062203486        1.3819580429       -0.9198564585
 C          6.8786777871        0.8348179905        1.0070193016
 H          7.8511094842        0.7316085810        1.4935902421
 H          6.3580995328        1.6769440398        1.4700896277
 C          6.0601305847       -0.4342844258        1.2779161368
 H          5.7906916404       -0.4494763029        2.3369464495
 H          6.6543527764       -1.3204146080        1.0558392334
 H          7.4131991211       -1.3659430467       -2.8630512187
 H          6.2364312390       -0.0526083445       -2.8078554067
 H          6.3758103885       -2.3168324312       -0.7697116452
 H          5.3535476045       -2.3274394320       -2.2170815036
 O          3.5854301456       -0.9324275517       -1.5026968334
 C          2.4369337189       -0.3072410076       -1.0383254269
 O          1.4852751787       -0.3200848409       -1.8416618404
 O          3.6416343329        0.6753902252        2.2352090680
 C          1.2057813255        0.9247068309        0.7640358842
 C          0.0650697692       -0.0624722609        0.7968446006
 C          0.2595919467       -1.2861002656        1.4331327981
 C         -0.7531544614       -2.2233199552        1.4894562775
 C         -1.9846549410       -1.9632713451        0.9137316440
 C         -2.1945249440       -0.7425851363        0.2887821955
 C         -1.1759197009        0.2032001896        0.2417346883
 H         -1.3552993116        1.1470620992       -0.2490630477
 N         -3.4372464974       -0.4729736696       -0.3100030380
 S         -4.8292547758       -0.9495149620        0.5180154341
 O         -4.7292708110       -0.5773785065        1.9117264321
 O         -5.0647380949       -2.3475314362        0.2566843446
 C         -6.0654383650        0.0362864655       -0.3036862528
 C         -6.4589113829        1.2352859896        0.2599714716
 C         -7.4039258422        2.0067216991       -0.3979753630
 C         -7.9337682377        1.5699352565       -1.6028423769
 C         -7.5281811179        0.3644407450       -2.1563152456
 C         -6.5846151819       -0.4124860973       -1.5032937822
 H         -6.2461900731       -1.3593539991       -1.8905163612
 H         -7.9441049626        0.0276965427       -3.0921761774
 H         -8.6696552089        2.1716778591       -2.1124398974
 H         -7.7234050003        2.9429077187        0.0308104008
 H         -6.0272317181        1.5305914686        1.2028791996
 H         -3.5084125903        0.4812378397       -0.6355170588
 H         -2.7837994148       -2.6862100843        0.9480952297
 H         -0.5846905389       -3.1683681391        1.9844116780
 H          1.2216777747       -1.4935704346        1.8821738690
 H          1.4394173663        1.2065886873        1.8017442420
 C          0.9122328336        2.1818734034       -0.0271328921
 C          0.1673778148        3.3173626833        0.6074258238
 C          1.6345053944        3.4449259498        0.3304833123
 H          1.9556864287        4.0986490720       -0.4665153093
 H          2.3200657703        3.4043449374        1.1642813732
 H         -0.5176666580        3.8896813498        0.0000560924
 H         -0.1460278689        3.1970756851        1.6335038857
 H          0.7472879218        1.9815939690       -1.0800445893
