  62
        -98.94056649
 C         -1.7048437199       -0.2667331094       -0.7946443097
 C         -3.0202986299       -0.4417132291       -1.2962867398
 C         -4.0620713799        0.3935358204       -0.6890954491
 C         -3.7374033599        1.2538935696        0.2925558016
 C         -4.6810042999        2.1886500790        0.9994014924
 C         -5.4497700398        1.5389783080        2.1581340519
 C         -6.5507397498        0.5624086083        1.7425308412
 H         -7.1462139998        0.3528846976        2.6334125910
 H         -7.2083064399        1.0439470589        1.0180354416
 C         -6.0362112598       -0.7658647412        1.1701055201
 H         -4.9853081998       -0.8958266714        1.4391328299
 H         -6.5861908197       -1.5945734716        1.6218844494
 C         -6.1793385799       -0.9013012100       -0.3459415800
 H         -7.2378866299       -0.9057685198       -0.6153470700
 H         -5.7518604998       -1.8613649697       -0.6466655508
 C         -5.4760427599        0.2016091107       -1.1478263192
 H         -6.0317140500        1.1359758306       -1.0698581184
 H         -5.4478167100       -0.1030058684       -2.1970118194
 H         -5.9082862198        2.3441540275        2.7368378826
 H         -4.7357491898        1.0277248075        2.8079779815
 H         -4.0713026299        2.9996034887        1.4033383430
 H         -5.3872641000        2.6083290396        0.2824818628
 O         -2.4681156099        1.3834155293        0.7568703617
 C         -1.4246495599        0.6160102697        0.2500447110
 O         -0.3348561999        0.8264307093        0.8116136011
 O         -3.3102315399       -1.2610481483       -2.2084075705
 C         -0.6077704299       -1.1333541489       -1.3878119005
 C          0.2132359702       -1.7432489598       -0.2811554510
 C         -0.3967291897       -2.6300804705        0.6021247683
 C          0.3105250703       -3.1664181513        1.6604286678
 C          1.6355381303       -2.8237189515        1.8652079681
 C          2.2525194102       -1.9365557507        0.9903340088
 C          1.5447751302       -1.4171971499       -0.0851348608
 H          2.0414611501       -0.7431327093       -0.7610000203
 N          3.5728191202       -1.5407058908        1.2112030290
 S          4.5805102102       -0.7656261799        0.1482612396
 O          4.3417148601       -1.1907955389       -1.2120554807
 O          5.9105156302       -1.0219808003        0.6592669794
 C          4.2579952601        0.9870263399        0.2852922611
 C          3.0471837901        1.4902992595        0.7157603615
 C          2.8779842401        2.8670694995        0.7609479326
 C          3.9066616000        3.7134548198        0.3818985233
 C          5.1188452200        3.1918675602       -0.0447856872
 C          5.2954679601        1.8194795903       -0.0941319783
 H          6.2228142301        1.3718900406       -0.4139170287
 H          5.9220446200        3.8482241505       -0.3391060467
 H          3.7632597600        4.7819574398        0.4186244142
 H          1.9282124100        3.2592472792        1.0890791230
 H          2.2334548401        0.8422136893        0.9990060010
 H          4.0501719603       -1.9465951815        1.9989106387
 H          2.1846064704       -3.2288520121        2.7012768277
 H         -0.1740029996       -3.8529210119        2.3386424973
 H         -1.4378793397       -2.8837495204        0.4536866081
 H         -1.1472853699       -1.9451533785       -1.9039746111
 C          0.2386008400       -0.4353942680       -2.4416854999
 C         -0.3411928100        0.6329815627       -3.3177866890
 C          0.6974319700        0.9839496819       -2.2968606388
 H          1.6927055000        1.2338149822       -2.6365992886
 H          0.3924214600        1.5229693012       -1.4140483584
 H         -0.0659883801        0.6464862435       -4.3616404790
 H         -1.3622732300        0.9322657425       -3.1304631188
 H          0.9364709700       -1.1199330376       -2.9159762505
