  62
        -98.94737070
 C          1.7853605691        1.1716062631       -0.4376772240
 C          1.2406406507        1.8483233577        0.6834935763
 C          0.1169935367        2.7595862324        0.3988543483
 C         -0.3388064217        2.8871187981       -0.8592322786
 C         -1.5056893278        3.7333003416       -1.2762848898
 C         -2.8196702577        2.9412771762       -1.2447464153
 C         -3.0702821504        2.1981289667        0.0676780640
 H         -4.0549876911        1.7302570322       -0.0053634084
 H         -2.3458600064        1.3882369141        0.1768053676
 C         -3.0137730445        3.0787719824        1.3230747674
 H         -3.8514748319        2.8145717833        1.9719713254
 H         -3.1304794407        4.1291117241        1.0510333431
 C         -1.7398617832        2.9021447808        2.1524133835
 H         -1.5642521274        1.8369789109        2.3252879199
 H         -1.9010572895        3.3691418873        3.1284496449
 C         -0.4652188004        3.5167167707        1.5588637367
 H         -0.6530795103        4.5570028221        1.2813150084
 H          0.3010092843        3.5025368118        2.3398594158
 H         -3.6412075301        3.6358579463       -1.4299361807
 H         -2.8046623251        2.2070769050       -2.0534123560
 H         -1.5744122902        4.5961394213       -0.6165351904
 H         -1.3274610816        4.0803807255       -2.2957118039
 O          0.2058855425        2.2218475513       -1.9096434240
 C          1.2669788185        1.3519782718       -1.7239451041
 O          1.6619691908        0.8032333437       -2.7721001830
 O          1.6539988974        1.7236393044        1.8658485895
 C          2.9109508939        0.1513075795       -0.3578825984
 C          2.3416361858       -1.2393424432       -0.1887926230
 C          2.8196750817       -2.3032937858       -0.9447048743
 C          2.2682557819       -3.5647713325       -0.8120097628
 C          1.2079810484       -3.7805269145        0.0498899798
 C          0.7212552474       -2.7233092770        0.8096968110
 C          1.3102176980       -1.4708808554        0.7095760377
 H          0.9368609266       -0.6672768832        1.3254933440
 N         -0.3795052661       -2.8984923525        1.6690554829
 S         -1.6705777300       -1.8389289805        1.5328604034
 O         -1.3031011127       -0.5368605988        2.0195048713
 O         -2.7531311250       -2.5005348340        2.2281660093
 C         -2.0284641516       -1.7756476036       -0.2127885094
 C         -2.9493693051       -2.6608507770       -0.7382865187
 C         -3.1895274475       -2.6470489076       -2.1026416813
 C         -2.4990844122       -1.7620067566       -2.9175580218
 C         -1.5752860419       -0.8814737968       -2.3762247961
 C         -1.3390744080       -0.8855208047       -1.0108516166
 H         -0.6259311115       -0.2097996928       -0.5646647447
 H         -1.0230994559       -0.1959794122       -3.0012411287
 H         -2.6799860556       -1.7550367927       -3.9808395664
 H         -3.9098575761       -3.3272161210       -2.5278303893
 H         -3.4665484746       -3.3278682338       -0.0676751175
 H         -0.7212078163       -3.8487376578        1.7069725084
 H          0.7561635445       -4.7571900237        0.1339554951
 H          2.6509497143       -4.3831307428       -1.4021522213
 H          3.6176550222       -2.1326316816       -1.6513981441
 H          3.4142001756        0.1826033010       -1.3348646898
 C          3.9435607948        0.4301900316        0.7154334410
 C          5.3438199011       -0.0687147481        0.5281159780
 C          5.0515267900        1.3982807075        0.4353918043
 H          5.3790980058        2.0470763725        1.2334330935
 H          5.0735306658        1.8624823913       -0.5400667855
 H          5.8780613092       -0.4328739222        1.3920482086
 H          5.5736525226       -0.5954172742       -0.3855028536
 H          3.5348318683        0.4209865677        1.7171536125
