  62
        -98.93792567
 C         -1.4275479377       -1.0160699369       -0.4814594062
 C         -2.4996294301       -1.2178515585        0.4220141452
 C         -3.4296643181       -0.0949909662        0.6236957083
 C         -3.2022425798        1.0593759485       -0.0260794679
 C         -4.0363056433        2.3105573794        0.0048079747
 C         -5.0495724149        2.3214571247       -1.1523001559
 C         -6.3778516902        1.6281582742       -0.8512586756
 H         -6.9468197835        2.2358961988       -0.1446271793
 H         -6.9447561529        1.5932506658       -1.7843772875
 C         -6.2620442390        0.2076755740       -0.2922408898
 H         -5.4927602428       -0.3408255298       -0.8387079071
 H         -7.2112266884       -0.3011387263       -0.4707567092
 C         -5.9557671490        0.1740087985        1.2125578059
 H         -6.0975475288        1.1715793660        1.6279583481
 H         -6.6763490905       -0.4753809717        1.7140726671
 C         -4.5593837581       -0.3452436164        1.5851547704
 H         -4.2776726542        0.0563816104        2.5647228718
 H         -4.5919430097       -1.4340592174        1.6944801733
 H         -4.5746294926        1.8501768372       -2.0166309987
 H         -5.2620119716        3.3581437095       -1.4214455738
 H         -4.5325098025        2.4183635697        0.9648936327
 H         -3.3442481377        3.1454524225       -0.1268460719
 O         -2.1567726694        1.2195869264       -0.8791388887
 C         -1.2382505987        0.2085073051       -1.1239148786
 O         -0.3436729853        0.5351048678       -1.9246971775
 H          0.8128006525       -0.0239669628        0.3678795625
 C          1.1721067231       -0.9463443014        0.7927304036
 C          0.6151505358       -2.1515037204        0.3907366262
 C          1.0705168227       -3.3267287371        0.9779251096
 C          2.0687581636       -3.2908766649        1.9353741625
 C          2.6220831169       -2.0874076617        2.3324209163
 C          2.1589402072       -0.9028486766        1.7670127215
 N          2.6599873687        0.3265289530        2.2010767779
 S          2.5873050106        1.7518314418        1.3407120696
 O          3.3565427710        2.6704795001        2.1543233591
 O          1.2182530773        2.1247441052        1.0893711624
 C          3.4824192691        1.4426284123       -0.1700903933
 C          2.8274211644        1.2640823259       -1.3705431764
 C          3.5833054698        1.0201817415       -2.5086335482
 C          4.9644444065        0.9523420628       -2.4287369633
 C          5.6068675831        1.1337910465       -1.2125386309
 C          4.8609344258        1.3824397471       -0.0735081166
 H          5.3206387774        1.5518511918        0.8865165477
 H          6.6820180161        1.0844395224       -1.1509935960
 H          5.5424031889        0.7601259522       -3.3188967603
 H          3.0765070086        0.8827281020       -3.4502635170
 H          1.7501066585        1.3072539249       -1.4184343989
 H          3.4410042390        0.2890924578        2.8369981959
 H          3.3912222895       -2.0579319608        3.0885888470
 H          2.4156344577       -4.2094518666        2.3834894898
 H          0.6223638026       -4.2683799211        0.6972310365
 C         -0.4692822735       -2.1795295036       -0.6591791163
 H         -1.0774348958       -3.0793892324       -0.4704748916
 C          0.0901942334       -2.2944805934       -2.0701879786
 C          1.5030534942       -1.9481697651       -2.4201736856
 C          1.0650016103       -3.3799806496       -2.4201132446
 H          0.9500944709       -3.8860863023       -3.3665702180
 H          1.4230333146       -4.0103574272       -1.6212304128
 H          1.6766408148       -1.4547390498       -3.3633696840
 H          2.1527025338       -1.6084861057       -1.6281278817
 H         -0.6597225111       -2.0572984513       -2.8178603952
 O         -2.6792758822       -2.3086681514        1.0308874880
