  62
        -98.94685807
 C          1.6753516141        1.2361667324        0.3849890281
 C          1.3697841295        0.1886513336       -0.5173588247
 C          2.0496474025       -1.0862312374       -0.2683090381
 C          2.8405397113       -1.2217962798        0.8108049972
 C          3.5722740533       -2.4706365156        1.2217710128
 C          4.9160198238       -2.6739082185        0.5078369733
 C          4.8185507944       -3.0827130529       -0.9624672287
 H          5.8157460034       -3.4017947576       -1.2720086282
 H          4.1570728190       -3.9447303946       -1.0539896858
 C          4.3438208989       -1.9645651961       -1.9007845018
 H          4.9838306401       -1.9358926006       -2.7853399504
 H          4.4468256901       -1.0001933394       -1.3981453906
 C          2.9028499571       -2.1162417374       -2.3881648098
 H          2.8158869393       -3.0156132851       -3.0015264668
 H          2.6605424530       -1.2545950895       -3.0149406818
 C          1.8623584435       -2.1911027137       -1.2628434514
 H          0.8668115914       -2.0772487149       -1.6990454062
 H          1.9090336103       -3.1596505352       -0.7648852866
 H          5.4536074548       -3.4579122594        1.0461681928
 H          5.4978514368       -1.7531912715        0.5930415585
 H          2.9311900747       -3.3375345083        1.0568866546
 H          3.7608023049       -2.3808196862        2.2941063704
 O          3.0544146187       -0.2099270970        1.6954130479
 C          2.4839485359        1.0379161370        1.5015424808
 O          2.7611284957        1.8744575648        2.3881630368
 O          0.5721921833        0.3133735647       -1.4825963722
 C          1.0257845727        2.5982550194        0.2045111151
 C         -0.4719069449        2.4171799965        0.1790256684
 C         -1.3065749702        2.9804064929       -0.7772652758
 C         -2.6606282292        2.6903552064       -0.7893536613
 C         -3.2051225813        1.8179298305        0.1355980661
 C         -2.3818273640        1.2730992167        1.1112818824
 C         -1.0375809333        1.5952001816        1.1466071758
 H         -0.4026615847        1.1506376976        1.9041978352
 N         -2.9258157533        0.3007326615        2.0041947922
 S         -2.5307966465       -1.2527815803        1.4588071995
 O         -3.1912763406       -2.1662968382        2.3684087524
 O         -1.0970366836       -1.4269284913        1.3492813355
 C         -3.3094824743       -1.2980196245       -0.1367658751
 C         -2.5907377367       -0.9334598097       -1.2579999438
 C         -3.2363917704       -0.9248649607       -2.4851522420
 C         -4.5755046771       -1.2737648553       -2.5681989911
 C         -5.2816516834       -1.6360229071       -1.4305646818
 C         -4.6450869711       -1.6460501295       -0.2002979897
 H         -5.1482208875       -1.9200763997        0.7124286786
 H         -6.3231584763       -1.9060734165       -1.4983517253
 H         -5.0711712889       -1.2619913927       -3.5261680574
 H         -2.6842324527       -0.6374001475       -3.3654578817
 H         -1.5513293563       -0.6557379386       -1.1636823131
 H         -2.5621232012        0.3928570444        2.9444877544
 H         -4.2485902204        1.5493957515        0.1126597956
 H         -3.2935827349        3.1288086563       -1.5450143383
 H         -0.8911979985        3.6327381392       -1.5279123791
 H          1.2952238403        3.1882657064        1.0927794801
 C          1.5737944034        3.2840245948       -1.0293865181
 C          1.6187020549        4.7799032251       -1.1064152494
 C          2.8866459915        3.9996441789       -0.9365513214
 H          3.5701244128        3.9335998887       -1.7696572344
 H          3.3750216944        4.0140438388        0.0273027033
 H          1.4354886880        5.2533521824       -2.0590205489
 H          1.2501547422        5.3357454567       -0.2576343345
 H          1.3705808737        2.7277234097       -1.9371693251
