  62
        -98.94298863
 C          2.6803347309        1.2021564955        0.1302493425
 C          2.6981381540        0.2066810950       -0.8758666736
 C          3.8925826920       -0.6498432131       -0.9039961284
 C          4.8810396689       -0.4338606425       -0.0169435948
 C          6.1236348407       -1.2669626592        0.1020550348
 C          5.9284787841       -2.4133843895        1.1043632051
 C          4.6486538583       -3.2191308786        0.8806790279
 H          3.7848707193       -2.5797679071        1.0772738135
 H          4.6331513700       -4.0174358957        1.6258666572
 C          4.5179726825       -3.8271428114       -0.5227530965
 H          4.1818297531       -4.8615910781       -0.4259188418
 H          5.4936449154       -3.8479733045       -1.0096445577
 C          3.5134481982       -3.1157361453       -1.4312252095
 H          2.5587668909       -3.0077416792       -0.9099664791
 H          3.3392029320       -3.7480398634       -2.3058654763
 C          3.9400848764       -1.7342261466       -1.9432582518
 H          3.2306153709       -1.4345724949       -2.7201144585
 H          4.9339504906       -1.7975189394       -2.3908922319
 H          5.8951664564       -1.9907284217        2.1112612546
 H          6.7935012504       -3.0762344127        1.0430065658
 H          6.9354544413       -0.6261351303        0.4501784461
 H          6.3828671589       -1.6659424712       -0.8766045882
 O          4.8375909089        0.5500965645        0.9180723691
 C          3.7345542164        1.3807113370        1.0253714629
 O          3.8099515072        2.2237248245        1.9425098000
 O          1.7678253790        0.0404363712       -1.7069598912
 C          1.4798081958        2.1223917268        0.2595760257
 C          0.2315319040        1.3042694683        0.4864184205
 C          0.2244034943        0.3702610412        1.5196869074
 C         -0.8937004269       -0.4010263251        1.7686374090
 C         -2.0322653786       -0.2598221792        0.9937652733
 C         -2.0420493820        0.6769872509       -0.0291794397
 C         -0.9165407803        1.4560312774       -0.2734163894
 H         -0.9412332810        2.1781707727       -1.0745613835
 N         -3.1882735360        0.8213695873       -0.8251958051
 S         -4.6952932437        0.8961937336       -0.0975883413
 O         -5.5355164373        1.5926553431       -1.0470737924
 O         -4.6162862819        1.4660402860        1.2273389882
 C         -5.2153605804       -0.8040614187       -0.0029628890
 C         -5.6308384169       -1.3304070665        1.2043858934
 C         -6.0443892286       -2.6526734626        1.2526213050
 C         -6.0364926067       -3.4205551565        0.0983510557
 C         -5.6188177912       -2.8761332924       -1.1070456505
 C         -5.2051647336       -1.5548303509       -1.1621011241
 H         -4.8758349382       -1.0954313308       -2.0791335724
 H         -5.6133577433       -3.4766985605       -2.0024342266
 H         -6.3578406910       -4.4494114946        0.1381672898
 H         -6.3698468943       -3.0776217625        2.1885958526
 H         -5.6151998456       -0.6975621721        2.0775787840
 H         -3.0977352507        1.5033061348       -1.5637210967
 H         -2.9062512623       -0.8622265207        1.1796332097
 H         -0.8799433254       -1.1232776719        2.5709989916
 H          1.1144867601        0.2578459167        2.1246641160
 H          1.6556075155        2.7280376253        1.1607556086
 C          1.4016371886        3.0461794892       -0.9378395296
 C          0.7472904422        4.3885866846       -0.8134497536
 C          2.2368069986        4.2896308770       -0.9459875252
 H          2.6945345462        4.5976248047       -1.8740617191
 H          2.8446967307        4.4837008687       -0.0741799332
 H          0.1841273927        4.7702294414       -1.6521492956
 H          0.3404680189        4.6596402286        0.1493309272
 H          1.2986946540        2.5085794418       -1.8736026125
