  62
        -98.93821309
 C         -1.7699442782       -0.1968713330       -0.8926123711
 C         -2.9347881783        0.6029277990       -1.0045859274
 C         -4.2070779887       -0.0747993385       -0.6980427467
 C         -4.2044621906       -1.3711608978       -0.3424150254
 C         -5.4196426347       -2.1575711675        0.0541371812
 C         -5.6555937081       -2.0886104248        1.5694430354
 C         -5.6105944740       -0.6700972430        2.1375774596
 H         -5.8200831443       -0.7411383093        3.2071470970
 H         -4.5964284222       -0.2771178781        2.0347169267
 C         -6.6005781960        0.3059066475        1.4865375912
 H         -7.3765789938       -0.2500392536        0.9590882033
 H         -7.0927617561        0.8820680864        2.2729814379
 C         -5.9613052105        1.3140649400        0.5298570108
 H         -5.1231707466        1.8093974509        1.0265539909
 H         -6.7042961182        2.0823351001        0.2992839690
 C         -5.4626276356        0.7448093600       -0.8043754723
 H         -6.2595479183        0.1693866035       -1.2797328284
 H         -5.2142953667        1.5901412197       -1.4529638832
 H         -6.6249897683       -2.5398471909        1.7888430940
 H         -4.8841724770       -2.6807679738        2.0671141437
 H         -6.2866193905       -1.7697173297       -0.4771142277
 H         -5.2641728458       -3.1987068459       -0.2335594214
 O         -3.0683380237       -2.1093329746       -0.2562055928
 C         -1.8337501302       -1.5423397549       -0.5183104495
 O         -0.8742929803       -2.3304358610       -0.3957743676
 H          2.1102211590       -0.0624616545       -0.2033695770
 C          1.5567766916        0.6395940115        0.4006660998
 C          0.2444665702        0.9421599592        0.0697229891
 C         -0.4632384444        1.8251028419        0.8785547205
 C          0.1375281284        2.3907918436        1.9884319245
 C          1.4571348584        2.1100659208        2.2969266198
 C          2.1739120749        1.2316610331        1.4934920374
 N          3.5131033899        0.9242671312        1.7692554970
 S          4.6012556580        0.7865532903        0.5017179907
 O          5.8893413722        1.0703812043        1.0965608246
 O          4.2152109903        1.6161578338       -0.6147438520
 C          4.5402278850       -0.9336261193        0.0504371941
 C          4.7935697752       -1.8741943041        1.0291139648
 C          4.7611096622       -3.2170970136        0.6906710474
 C          4.4788281590       -3.5947047983       -0.6135679667
 C          4.2307410880       -2.6381472887       -1.5856022299
 C          4.2620583474       -1.2930184995       -1.2531778093
 H          4.0704820511       -0.5177524402       -1.9789220111
 H          4.0094855670       -2.9331713854       -2.5988861022
 H          4.4506457500       -4.6407135947       -0.8751404013
 H          4.9532378838       -3.9651967331        1.4428527800
 H          5.0131264853       -1.5414466430        2.0298721132
 H          3.9099411414        1.4169024382        2.5560378304
 H          1.9293396012        2.5668413551        3.1535309862
 H         -0.4229505632        3.0714582648        2.6117238640
 H         -1.4819874957        2.0729361067        0.6222897607
 C         -0.3688813027        0.3257827149       -1.1609970348
 H          0.2274586322       -0.5674601370       -1.4076998283
 C         -0.2925422266        1.2559831160       -2.3648360667
 C         -0.1048447997        2.7361141267       -2.2604026945
 C          1.0153244678        1.8770048337       -2.7605068437
 H          1.2679704894        1.9177492130       -3.8096883910
 H          1.8667697917        1.7364188632       -2.1093552031
 H         -0.6411406727        3.3594589876       -2.9594648482
 H         -0.0126226378        3.1703235749       -1.2773808202
 H         -0.9278565851        0.9123481169       -3.1754269103
 O         -2.9384875681        1.8155166243       -1.3357495567
