  62
        -98.94366363
 C          1.6532815660        0.5744112662       -0.3079553385
 C          2.9015269351        1.1404983102       -0.6599151993
 C          4.0535618412        0.7030859584        0.1395130921
 C          3.8603013336       -0.1633742621        1.1509424169
 C          4.9499314849       -0.7271404238        2.0154921848
 C          5.4945939637       -2.0410107023        1.4378818980
 C          5.8487959145       -1.9629759411       -0.0471192838
 H          6.2508004379       -2.9360880598       -0.3373453355
 H          4.9342926081       -1.8077002993       -0.6239996827
 C          6.8621878329       -0.8656825602       -0.4011653765
 H          7.3892231941       -0.5433864897        0.4976285973
 H          7.6076459778       -1.2832401215       -1.0813024342
 C          6.2575487871        0.3543933871       -1.0984666979
 H          7.0766374314        0.9596652452       -1.4961431616
 H          5.6507163974        0.0280853651       -1.9468902530
 C          5.3993369641        1.2697951783       -0.2161358606
 H          5.9551793053        1.5393452920        0.6843172531
 H          5.1990412023        2.1842596512       -0.7824158745
 H          6.3783611973       -2.3292191416        2.0100055047
 H          4.7367703904       -2.8167689569        1.5685063357
 H          5.7518554243        0.0033061133        2.1033761687
 H          4.5363471346       -0.9201207884        3.0067374076
 O          2.6419913912       -0.6650863841        1.4757156074
 C          1.5076669659       -0.3174595592        0.7551786694
 O          0.4606517669       -0.8583211170        1.1545956669
 O          3.0442799382        1.9757779327       -1.5937534907
 C          0.4172123976        0.9762750189       -1.0931672662
 C         -0.5683016415        1.6394263222       -0.1638561370
 C         -0.1587074747        2.7557070310        0.5621366180
 C         -1.0177058810        3.3717141483        1.4505165406
 C         -2.3009726493        2.8872323286        1.6375269549
 C         -2.7202405145        1.7752235223        0.9172815592
 C         -1.8574758156        1.1670656288        0.0146770968
 H         -2.2026263515        0.3160027070       -0.5448468009
 N         -3.9927667360        1.2366705305        1.1231006914
 S         -4.7766989716        0.2847807706        0.0073708019
 O         -4.6789714882        0.8293294383       -1.3272042541
 O         -6.1187324061        0.1585742457        0.5352369750
 C         -3.9572422089       -1.2936351762        0.0878740906
 C         -3.5923401075       -1.7992224144        1.3189425485
 C         -2.9610621242       -3.0309603012        1.3748071320
 C         -2.7101456660       -3.7339925903        0.2068812296
 C         -3.0893166054       -3.2159946586       -1.0216926010
 C         -3.7205699836       -1.9844677299       -1.0838910853
 H         -4.0225771654       -1.5373730219       -2.0180932255
 H         -2.8908543147       -3.7638576883       -1.9292821986
 H         -2.2117233202       -4.6895145146        0.2540726601
 H         -2.6581896475       -3.4345078854        2.3274460304
 H         -3.7928142460       -1.2246686952        2.2078205771
 H         -4.6109395734        1.7517037849        1.7297895980
 H         -2.9693062241        3.3611594808        2.3400128753
 H         -0.6872272221        4.2364526647        2.0063040206
 H          0.8468680352        3.1288358066        0.4225641710
 H          0.7620218131        1.7255173777       -1.8209464958
 C         -0.1496918975       -0.2102203426       -1.8431544753
 C         -0.9944442493        0.0078669562       -3.0613789254
 C          0.3925271232       -0.5420230544       -3.1997833000
 H          0.5115505788       -1.5810597094       -3.4673991702
 H          1.1614323400        0.1028710643       -3.5997467227
 H         -1.8311231775       -0.6515680697       -3.2342870963
 H         -1.1736518729        1.0271417169       -3.3687641100
 H         -0.4002811823       -1.0385164822       -1.1892708061
