  62
        -98.93762765
 C         -1.8496162443       -0.4192690290       -0.0273557572
 C         -2.9218093232       -0.6757242806        0.8640352885
 C         -4.1656316644        0.0688673497        0.6222410668
 C         -4.2077076024        0.9611301298       -0.3838423239
 C         -5.4181504280        1.7449105071       -0.8049609955
 C         -6.3723477724        0.8446848846       -1.6157528039
 C         -7.7184308960        0.5821460119       -0.9400004831
 H         -8.3430601334        1.4728613543       -1.0353409110
 H         -8.2086123813       -0.2240148246       -1.4900334909
 C         -7.6591173170        0.2087537146        0.5443012842
 H         -8.6378574933       -0.1970725089        0.8090080026
 H         -7.5241662974        1.1099474160        1.1443163520
 C         -6.5807594594       -0.8091101969        0.9376432186
 H         -6.3012405331       -1.4233852303        0.0814770102
 H         -7.0055392967       -1.4812093572        1.6859981508
 C         -5.3132515092       -0.1924009971        1.5582011563
 H         -5.5751418749        0.7312865774        2.0817632454
 H         -4.9141991000       -0.8885321930        2.3018018701
 H         -5.8678047387       -0.1049065103       -1.8060130358
 H         -6.5619132737        1.2994420212       -2.5892321230
 H         -5.0692072081        2.5771641799       -1.4167011594
 H         -5.9214531101        2.1447341572        0.0725667702
 O         -3.1499768150        1.2015443709       -1.1998520533
 C         -1.9478035946        0.5246390880       -1.0490878689
 O         -1.0780656956        0.8521909783       -1.8789112172
 O         -2.8404469882       -1.4938345997        1.8186586217
 C         -0.5492817852       -1.1750292076        0.1930759486
 C          0.4831213908       -0.2147110449        0.7280527194
 C          0.5340032027        0.0475529303        2.0939249145
 C          1.4538247709        0.9421543726        2.6095574060
 C          2.3388759879        1.5996201169        1.7724966376
 C          2.2868712404        1.3525831768        0.4076826534
 C          1.3741326466        0.4423451069       -0.1069771175
 H          1.3364699685        0.2711241976       -1.1711734113
 N          3.1917263312        2.0175481258       -0.4503575747
 S          4.8028603221        1.6075100220       -0.2409232930
 O          5.2649698010        2.1472736038        1.0123713319
 O          5.4861284930        2.0683953066       -1.4281331954
 C          4.7958973123       -0.1745791776       -0.1763004690
 C          4.6379423755       -0.8059655999        1.0409766386
 C          4.5378404371       -2.1876958012        1.0688070458
 C          4.5960467460       -2.9095718473       -0.1131308418
 C          4.7590924008       -2.2602112556       -1.3272684148
 C          4.8526340715       -0.8785510781       -1.3625693295
 H          4.9820108397       -0.3348687103       -2.2848567724
 H          4.8091121657       -2.8249304588       -2.2445641761
 H          4.5140944384       -3.9847906383       -0.0886252734
 H          4.4108241439       -2.6950105131        2.0116303632
 H          4.6018228375       -0.2100719190        1.9379740263
 H          2.9424800691        1.9227114187       -1.4251507617
 H          3.0711903883        2.2929444069        2.1538846443
 H          1.4823048879        1.1315684287        3.6719316361
 H         -0.1656819463       -0.4550223668        2.7468461095
 H         -0.7723622878       -1.9046095508        0.9827790553
 C         -0.0898981091       -1.9186737817       -1.0441680269
 C          1.0276337999       -2.9099878081       -0.9214497198
 C         -0.3719067024       -3.3846007629       -1.1689099461
 H         -0.6193671848       -3.7791083202       -2.1430560058
 H         -0.9011384539       -3.8628643817       -0.3579564640
 H          1.7462594631       -2.9788742746       -1.7233273327
 H          1.4512322011       -3.0597443276        0.0599281160
 H         -0.1451541452       -1.3265068010       -1.9491774547
