  62
        -98.94467854
 C         -2.0237296037       -0.7430819997        0.5587884294
 C         -1.9490942277       -0.0389391059       -0.6672607978
 C         -1.9601379706        1.4240005401       -0.5629059337
 C         -1.9795026993        2.0077891611        0.6485325187
 C         -1.9379549213        3.4876553698        0.9195596635
 C         -3.3043297242        4.1818134539        0.8322809716
 C         -3.8625475371        4.3448585594       -0.5819628131
 H         -4.7074124372        5.0329935472       -0.5148558098
 H         -3.1088277207        4.8131620649       -1.2154796616
 C         -4.3406017971        3.0372546282       -1.2282638627
 H         -4.4699560863        2.2757392539       -0.4558957484
 H         -5.3172698600        3.1952553275       -1.6909439103
 C         -3.4098262994        2.4883686033       -2.3096607994
 H         -3.8244901136        1.5447843696       -2.6727703125
 H         -3.3711719530        3.1856637435       -3.1493656371
 C         -1.9764967499        2.2210789371       -1.8316317079
 H         -1.4399453700        3.1600471104       -1.6953596084
 H         -1.4576460039        1.6330838271       -2.5927951790
 H         -4.0169995906        3.6241499291        1.4441669242
 H         -3.1925030792        5.1749827042        1.2732678796
 H         -1.2381168794        3.9617242938        0.2303227773
 H         -1.5539481391        3.6041828274        1.9356196762
 O         -2.0210139908        1.2946972919        1.8070744921
 C         -2.0442322330       -0.0904493890        1.7894236170
 O         -2.0860907341       -0.6188978883        2.9213136351
 O         -1.8781522984       -0.6027279057       -1.7909049244
 C         -1.9582627847       -2.2601419047        0.5594587876
 C         -0.6676114268       -2.6892940917       -0.0977290415
 C         -0.5769976053       -3.7247385723       -1.0184822889
 C          0.6363274511       -4.0241072593       -1.6147133280
 C          1.7726326960       -3.2935440228       -1.3210116493
 C          1.6955540653       -2.2691447229       -0.3833766129
 C          0.4885330731       -1.9951265359        0.2355423694
 H          0.4417098553       -1.1977109282        0.9643482180
 N          2.8292471788       -1.5118281388       -0.0385512110
 S          2.6010811277        0.1136278600        0.3641160951
 O          2.2505155026        0.1988825208        1.7611927860
 O          1.6969961898        0.7478342445       -0.5679718923
 C          4.2594227738        0.7282440548        0.1294898708
 C          4.5863823619        1.3589127715       -1.0560323657
 C          5.8859391042        1.8037782980       -1.2427077353
 C          6.8318292001        1.6084133781       -0.2475791554
 C          6.4886346469        0.9741755519        0.9373633267
 C          5.1908610438        0.5281114444        1.1308900225
 H          4.8736310260        0.0391247298        2.0372022045
 H          7.2257079637        0.8262795547        1.7099604916
 H          7.8421726552        1.9555128952       -0.3952110653
 H          6.1541389383        2.3003048709       -2.1612750723
 H          3.8143333226        1.4948109703       -1.7965363416
 H          3.5913667510       -1.6279818888       -0.6928960961
 H          2.7102091767       -3.5097717942       -1.8100755206
 H          0.6923761326       -4.8256645233       -2.3355650137
 H         -1.4584565007       -4.2863985775       -1.2813482857
 H         -1.9261400657       -2.5650725169        1.6163300311
 C         -3.1932280973       -2.8516987302       -0.0869984646
 C         -3.7030316512       -4.1939759106        0.3416852422
 C         -4.4522248458       -2.9524313353        0.7188587225
 H         -5.3937544647       -2.7471046389        0.2321548037
 H         -4.4090373729       -2.6175372857        1.7453622482
 H         -4.1355617077       -4.8434387297       -0.4043093254
 H         -3.1588322343       -4.7107112736        1.1177075885
 H         -3.2865297477       -2.5740153693       -1.1305437001
