  62
        -98.93487646
 C         -2.0699843470       -0.8699695738        0.6988582547
 C         -1.9127757902       -0.1623987713       -0.5172582006
 C         -1.9615411245        1.3097767028       -0.4377275341
 C         -2.1017006695        1.9064553834        0.7590758331
 C         -2.1096678136        3.3686057956        1.1562275497
 C         -2.2384053507        4.4639965800        0.1013042172
 C         -3.5997339273        4.5266858293       -0.5907506439
 H         -4.3404873224        4.8744451915        0.1335250424
 H         -3.5422969267        5.2673527545       -1.3911186222
 C         -4.1045577140        3.2073594285       -1.1690134095
 H         -4.2487199336        2.4853072724       -0.3627673205
 H         -5.0846652414        3.3914830554       -1.6170325699
 C         -3.2140294904        2.5816345877       -2.2404617054
 H         -3.0277959811        3.3077881883       -3.0340041487
 H         -3.7629775300        1.7427161601       -2.6764089382
 C         -1.8616705576        2.0406608920       -1.7453083118
 H         -1.1128081152        2.8268261352       -1.6822696030
 H         -1.4979141940        1.3088344075       -2.4726195957
 H         -1.4396548003        4.3729940048       -0.6289390718
 H         -2.0870159952        5.4144624647        0.6203252354
 H         -2.9178494509        3.4763183654        1.8872325809
 H         -1.1739294973        3.5234092656        1.7058517537
 O         -2.2204655848        1.1822005990        1.9127543255
 C         -2.1863322815       -0.1998253297        1.9157201430
 O         -2.2712842382       -0.7097271387        3.0529961247
 O         -1.7359465206       -0.7211595395       -1.6306902565
 C         -1.9316225572       -2.3831301285        0.7647394763
 C         -0.6977556785       -2.7761114574       -0.0114834840
 C         -0.6724451652       -3.7273004036       -1.0215360647
 C          0.4989245988       -3.9707842474       -1.7188863884
 C          1.6531907564       -3.2627582064       -1.4413856676
 C          1.6399277765       -2.3178597953       -0.4205884664
 C          0.4794901434       -2.1071707777        0.3017051468
 H          0.4781430433       -1.3692467496        1.0927711257
 N          2.7920287476       -1.5773937133       -0.0976890402
 S          2.5797921405        0.0125298996        0.4352834037
 O          2.3254809417       -0.0084259943        1.8560015896
 O          1.6091185321        0.7041649051       -0.3812095777
 C          4.2129052362        0.6652384517        0.1352923514
 C          5.2100263601        0.4169234643        1.0595731269
 C          6.4868928508        0.8955225212        0.8121791813
 C          6.7444176956        1.6095968726       -0.3487715413
 C          5.7332618148        1.8527762187       -1.2661339571
 C          4.4542681918        1.3755985953       -1.0254162602
 H          3.6340162360        1.5461796456       -1.7043819323
 H          5.9348182152        2.4112712032       -2.1659573105
 H          7.7387114566        1.9817624493       -0.5384449012
 H          7.2745056668        0.7110191051        1.5246822833
 H          4.9585281240       -0.1337957356        1.9509355197
 H          3.5044124581       -1.6336203514       -0.8132236651
 H          2.5547517299       -3.4314158398       -2.0105139020
 H          0.5049646712       -4.7061821462       -2.5092209383
 H         -1.5744258308       -4.2544197846       -1.2857848483
 H         -1.7401266011       -2.5993869117        1.8298690627
 C         -3.1785758279       -3.1641537797        0.3812513225
 C         -4.5393590909       -2.5461000209        0.4979106631
 C         -3.9714216070       -2.8579141973       -0.8523007814
 H         -4.3949932246       -3.6839088474       -1.4049336783
 H         -3.6307976211       -2.0434537341       -1.4708496983
 H         -5.3484560567       -3.1546522568        0.8732698249
 H         -4.5908891866       -1.5114148398        0.8057009673
 H         -3.1031302332       -4.2094606843        0.6653140166
