  62
        -98.93753047
 C          2.5354680901        1.1376778394        0.1710552403
 C          3.1586739001        0.3305239095        1.1576047204
 C          4.4803138401       -0.2128299206        0.8229299104
 C          5.0261532500        0.0850256692       -0.3701470097
 C          6.3470963499       -0.4289738309       -0.8631514497
 C          6.1789523598       -1.7390692410       -1.6452168595
 C          5.3284129198       -2.7839952709       -0.9231112993
 H          4.3021334298       -2.4174611908       -0.8462045493
 H          5.3045570597       -3.6759402210       -1.5528047992
 C          5.8370819899       -3.1595533307        0.4756958207
 H          5.8038202099       -4.2459913007        0.5806443009
 H          6.8786786599       -2.8556009908        0.5856942706
 C          5.0153592600       -2.5759610105        1.6266583307
 H          5.3206814401       -3.0754758204        2.5500582207
 H          3.9563573800       -2.7968532705        1.4702763508
 C          5.1639209801       -1.0662564405        1.8538179804
 H          4.6848688402       -0.8246507003        2.8072654204
 H          6.2224526601       -0.8077980005        1.9267009603
 H          7.1699579398       -2.1496964311       -1.8469325395
 H          5.7034239997       -1.5123527012       -2.6021295495
 H          7.0099248400       -0.5828287008       -0.0137487998
 H          6.7838723199        0.3235844989       -1.5217811899
 O          4.4051210299        0.8635054291       -1.2892664398
 C          3.1434244800        1.4012546592       -1.0578227898
 O          2.7078810499        2.0729306491       -2.0089329798
 O          2.6317314702        0.0864265597        2.2775526605
 C          1.1800307201        1.7175013295        0.5328645803
 C          0.0496728601        0.8415084395        0.0590541706
 C         -0.0395249801        0.4138963093       -1.2619283994
 C         -1.1088544101       -0.3587989407       -1.6782145092
 C         -2.1074483601       -0.7210926605       -0.7903058990
 C         -2.0212261800       -0.3100566104        0.5321973309
 C         -0.9471468299        0.4640970597        0.9473581307
 H         -0.8840152998        0.7770172498        1.9816202906
 N         -3.0511762799       -0.6710939002        1.4328439810
 S         -4.4850873299        0.1887685999        1.2090107710
 O         -4.2141913899        1.5413130198        0.7756174008
 O         -5.2171966298        0.0483050801        2.4483496311
 C         -5.3187473700       -0.7101286703       -0.0790888488
 C         -5.5164481901       -0.1173053305       -1.3104545789
 C         -6.1674770502       -0.8354861406       -2.3014574487
 C         -6.6061856402       -2.1254454405       -2.0440203885
 C         -6.4005541302       -2.7056109804       -0.8007838584
 C         -5.7509348401       -1.9933018902        0.1945430514
 H         -5.5753274400       -2.4023724501        1.1755358415
 H         -6.7438687402       -3.7086784103       -0.6051126182
 H         -7.1122271003       -2.6818304306       -2.8171898884
 H         -6.3282461503       -0.3866409907       -3.2684875288
 H         -5.1542621001        0.8863172495       -1.4654242990
 H         -2.7706241998       -0.5856612201        2.4007367310
 H         -2.9402902001       -1.3259650206       -1.1099184989
 H         -1.1661229102       -0.6811182309       -2.7067636291
 H          0.7345977899        0.7017985392       -1.9574192995
 H          1.1621342102        1.7033007197        1.6349085004
 C          1.0109473802        3.1699259194        0.1078384101
 C          0.1413748201        3.6190693793       -1.0233115699
 C         -0.2735389498        3.8934915195        0.3891169501
 H         -0.2274900597        4.9068999196        0.7583834100
 H         -1.0990923898        3.3184513696        0.7842175703
 H          0.4987590801        4.4350071792       -1.6324582900
 H         -0.4072611000        2.8740374393       -1.5767547597
 H          1.9256767102        3.7357923694        0.2566319600
