  62
        -98.93865786
 C         -2.1136685618       -0.9303024981        0.0024727803
 C         -2.8744770152       -0.2695452798        0.9937376393
 C         -3.5802408878        0.9520866801        0.5725749180
 C         -3.4360627842        1.3934475076       -0.6888881715
 C         -4.0178839020        2.6336963306       -1.3205217888
 C         -5.4833137205        2.9677061645       -1.0090069009
 C         -6.3963414694        1.7504945772       -0.8012781738
 H         -7.2797668097        1.8583583259       -1.4331892095
 H         -5.8820208632        0.8398626091       -1.1130483604
 C         -6.8700526162        1.5997549428        0.6463128629
 H         -7.1500500296        2.5843606178        1.0269956556
 H         -7.7677040896        0.9770130452        0.6586510778
 C         -5.8639873038        0.9612076498        1.6030691569
 H         -5.7485496162       -0.0996400330        1.3650376444
 H         -6.2762466484        1.0199013469        2.6132113779
 C         -4.4614966451        1.5913798226        1.6071916705
 H         -4.5125051327        2.6703438205        1.4827549753
 H         -3.9983635552        1.3738559410        2.5736617285
 H         -5.5323524211        3.6033937068       -0.1260045522
 H         -5.8540495203        3.5633285260       -1.8448903575
 H         -3.3883906159        3.4839926982       -1.0410294317
 H         -3.8962368638        2.4863634332       -2.3964288931
 O         -2.6617272631        0.7432987951       -1.6041092157
 C         -1.9902080582       -0.4288265095       -1.2925099901
 O         -1.3359523709       -0.9127563293       -2.2348669835
 H          0.0783612614       -0.1761126149        1.2731848307
 C          0.6968769062       -0.8652116547        0.7100197048
 C          0.1120261224       -1.9995453732        0.1591997328
 C          0.9157523501       -2.8736357182       -0.5595986366
 C          2.2622369236       -2.6031403329       -0.7350454379
 C          2.8364324291       -1.4678460658       -0.1943467818
 C          2.0432865593       -0.5908025878        0.5344047191
 N          2.6213701030        0.5634162566        1.0984731602
 S          3.4303613314        1.6021422682        0.0515317256
 O          3.3833693524        2.8970892635        0.6966262485
 O          2.8951773737        1.5320762950       -1.2887155060
 C          5.1070278095        1.0033688039        0.0765658079
 C          5.7524027899        0.9232693804        1.2952087851
 C          7.0591275857        0.4635274157        1.3305195939
 C          7.6953052861        0.0967999479        0.1537162445
 C          7.0345310998        0.1862838012       -1.0619079774
 C          5.7267516682        0.6445692107       -1.1043356294
 H          5.1697200995        0.7252666655       -2.0243220699
 H          7.5302868290       -0.0991136910       -1.9758274692
 H          8.7121950105       -0.2613569985        0.1839254372
 H          7.5762760186        0.3922886123        2.2737522584
 H          5.2225125730        1.2212762335        2.1844081791
 H          1.9772301510        1.0898952034        1.6720226824
 H          3.8826957606       -1.2510981088       -0.3352376508
 H          2.8730143431       -3.2867557386       -1.3046342293
 H          0.4863826560       -3.7606816393       -0.9950237562
 C         -1.3686573373       -2.2017903165        0.3675518262
 H         -1.5472542989       -2.3464683123        1.4436029942
 C         -1.9363323839       -3.3862745593       -0.3849138831
 C         -1.8428578200       -4.7641727918        0.1972084770
 C         -3.1644483010       -4.0600896930        0.1470866046
 H         -3.9088478818       -4.4041320735       -0.5552508851
 H         -3.5784981913       -3.6792116602        1.0693964216
 H         -1.6816855050       -5.5963767851       -0.4710925748
 H         -1.3612235913       -4.8684334096        1.1575033691
 H         -1.8532486820       -3.2740420255       -1.4602008388
 O         -2.9495744978       -0.6730777794        2.1860825252
