  62
        -98.93557084
 C         -2.4971411697       -0.7357722893        0.4093043969
 C         -2.5368651111        0.6823925042        0.4197581139
 C         -3.6726031855        1.3123593983       -0.2635632953
 C         -4.5774836803        0.5320487792       -0.8818399454
 C         -5.8127494061        1.0309179404       -1.5728540274
 C         -7.0069479670        1.0798246866       -0.6094142738
 C         -6.7028774680        1.7778617095        0.7161569757
 H         -7.6247429534        1.7796340863        1.3017278082
 H         -5.9708313699        1.1861458238        1.2705234132
 C         -6.1855997559        3.2159725613        0.5721691954
 H         -6.4209775050        3.5966388076       -0.4223249566
 H         -6.7062568622        3.8494497859        1.2933719915
 C         -4.6875300292        3.3802492096        0.8354707744
 H         -4.4303284948        2.9161060949        1.7909144939
 H         -4.4725991259        4.4486500809        0.9223209181
 C         -3.7542011890        2.8128337314       -0.2416886175
 H         -4.0461805262        3.1966058803       -1.2215278372
 H         -2.7411707157        3.1640703867       -0.0242387806
 H         -7.8330522172        1.5883498084       -1.1097221644
 H         -7.3190220129        0.0554854975       -0.3932888094
 H         -5.6192865634        2.0215689213       -1.9798854496
 H         -6.0462846303        0.3501243863       -2.3931527697
 O         -4.4885486235       -0.8201167713       -0.9062534560
 C         -3.4535500174       -1.4950864323       -0.2663256727
 O         -3.5197158637       -2.7313631415       -0.3844847171
 H          1.1791260808       -0.4697022014        1.4932410898
 C          1.0760850002       -1.0004895750        0.5564501165
 C         -0.1556358795       -1.5359902168        0.2126701734
 C         -0.2839317399       -2.1861453936       -1.0109341259
 C          0.8035966386       -2.3029573482       -1.8569423729
 C          2.0347764694       -1.7762082893       -1.5060027840
 C          2.1705904814       -1.1146479736       -0.2932691387
 N          3.4191378890       -0.5889757785        0.0887984303
 S          4.3305406934        0.2263398145       -1.0779990388
 O          3.5247485314        1.2366696421       -1.7270647666
 O          4.9379494052       -0.7499146802       -1.9470574299
 C          5.5768722770        0.9776208667       -0.0506129707
 C          5.4268935401        2.2922533986        0.3477651725
 C          6.3900369357        2.8569107677        1.1693401778
 C          7.4776747327        2.1002785757        1.5788969745
 C          7.6138428676        0.7816071979        1.1706802991
 C          6.6557775765        0.2112897275        0.3479443232
 H          6.7236904579       -0.8055688464       -0.0014894069
 H          8.4621942861        0.1979610326        1.4897336845
 H          8.2251324776        2.5425843896        2.2184176257
 H          6.2881183960        3.8825188847        1.4858569690
 H          4.5687240219        2.8450373886       -0.0003438382
 H          3.3468163963       -0.0271638653        0.9269103356
 H          2.8842774331       -1.8556670388       -2.1645236853
 H          0.6927085809       -2.8093053257       -2.8044183035
 H         -1.2438795221       -2.5943467279       -1.2904434575
 C         -1.3332795315       -1.3802872065        1.1411813779
 H         -1.0473220585       -0.6434604355        1.9089792836
 C         -1.7012193383       -2.6661956167        1.8669934043
 C         -1.2001283356       -4.0190897110        1.4703065094
 C         -0.6740344955       -3.3637220204        2.7095026032
 H         -0.9698067111       -3.7541581787        3.6713084803
 H          0.3348042108       -2.9800146258        2.6769912622
 H         -1.8821849132       -4.8498240650        1.5669435985
 H         -0.5457428721       -4.0934117334        0.6163540492
 H         -2.7108842471       -2.6302438136        2.2629333859
 O         -1.6601297778        1.3881083641        0.9892040391
