  62
        -98.93094056
 C         -2.2274364164        0.7203406821       -0.0880072236
 C         -3.5504502554        1.1261524746       -0.3958108933
 C         -4.6387768135        0.4379775093        0.3174426099
 C         -4.3366378943       -0.5384392863        1.1896808155
 C         -5.2686080120       -1.3434742136        2.0607514879
 C         -6.5759912646       -1.8415017700        1.4300147050
 C         -6.4831618836       -2.1940890851       -0.0617263586
 H         -5.4381063639       -2.2189275124       -0.3756218587
 H         -6.8930686640       -3.1939464050       -0.2160864337
 C         -7.2617860473       -1.2244954643       -0.9541341243
 H         -7.4644390763       -1.7129765462       -1.9102735196
 H         -8.2249161804       -1.0132414526       -0.4845633350
 C         -6.5555020327        0.0952873714       -1.2615432509
 H         -5.7063523252       -0.0844379656       -1.9263786435
 H         -7.2565010692        0.7337625310       -1.8043770506
 C         -6.0330720340        0.8676135253       -0.0391142873
 H         -5.9620743216        1.9233105872       -0.3146473273
 H         -6.7107994884        0.7741725385        0.8059143683
 H         -6.8809654829       -2.7240783924        1.9948561085
 H         -7.3561078967       -1.0947036835        1.5704966557
 H         -4.6747285877       -2.1972382670        2.3961345022
 H         -5.5031857848       -0.7472384247        2.9475140676
 O         -3.0513716662       -0.9248205668        1.4277646633
 C         -1.9687072097       -0.3239652033        0.7988729047
 O         -0.8694790533       -0.8174654026        1.1148905655
 O         -3.8124783892        2.0312490046       -1.2314411453
 C         -1.0915693802        1.4285514600       -0.8031697502
 C         -0.0853157155        0.4292802910       -1.3160058840
 C         -0.5050773953       -0.5261308069       -2.2381891043
 C          0.3740659822       -1.4756342173       -2.7196951566
 C          1.6913310403       -1.4885983611       -2.2968620231
 C          2.1254658661       -0.5305349199       -1.3881225738
 C          1.2388723860        0.4230905040       -0.9076095343
 H          1.5913727295        1.1368254457       -0.1836205296
 N          3.4768454269       -0.4986378703       -0.9990262338
 S          3.9597058293        0.0415085523        0.5226559181
 O          3.4028255768       -0.7859006850        1.5694064585
 O          3.7180162280        1.4586382442        0.6212823272
 C          5.7146093470       -0.2508957644        0.3829421659
 C          6.2781228258       -1.3527289793        0.9973519643
 C          7.6391577417       -1.5762328520        0.8576081501
 C          8.4089060603       -0.7002880778        0.1073990664
 C          7.8294452849        0.4025780733       -0.5026051825
 C          6.4699278455        0.6322065473       -0.3654358889
 H          5.9775677427        1.4793742266       -0.8133718657
 H          8.4316405531        1.0828677475       -1.0829137777
 H          9.4675927031       -0.8763466050        0.0001164534
 H          8.0925681790       -2.4306176448        1.3338674185
 H          5.6413387272       -2.0020134817        1.5767603138
 H          3.9608498982       -1.3565992762       -1.2282245030
 H          2.3773214250       -2.2356279354       -2.6666818497
 H          0.0315865107       -2.2173935209       -3.4257803978
 H         -1.5381864306       -0.5225100911       -2.5597340010
 H         -1.5717372640        1.9040900764       -1.6755730033
 C         -0.4577804060        2.5502617532        0.0057056997
 C         -1.2290751490        3.2924417965        1.0543799534
 C         -0.1017120494        2.3898260707        1.4522195666
 H          0.8211893625        2.8298007177        1.8028776622
 H         -0.3323093775        1.4458810295        1.9220325278
 H         -1.0879393359        4.3596951325        1.1348761395
 H         -2.2385043951        2.9667265454        1.2596659106
 H          0.2266391337        3.1438572405       -0.5935520673
