  62
        -98.93898486
 C         -2.4342472120       -0.8638530361        0.8247834988
 C         -3.3160845129       -0.6079553709       -0.2537100108
 C         -4.1259456913        0.6152315500       -0.1411492120
 C         -3.9717496100        1.4165298185        0.9281596875
 C         -4.6960075456        2.7134687300        1.1418567890
 C         -3.9066050512        3.8959650747        0.5631071392
 C         -3.4256605822        3.6753585776       -0.8711512372
 H         -2.6884634150        2.8688995153       -0.8814190757
 H         -2.9095582710        4.5853390458       -1.1847827158
 C         -4.5429584593        3.3509525535       -1.8725103753
 H         -4.3854309051        3.9426225984       -2.7767268395
 H         -5.5086241903        3.6432653035       -1.4583758264
 C         -4.6004011042        1.8846129441       -2.3047448928
 H         -3.6097799108        1.5591261439       -2.6328323413
 H         -5.2703694993        1.8099152128       -3.1654953672
 C         -5.1054057749        0.8965865227       -1.2458154482
 H         -5.2779218070       -0.0620745636       -1.7436532701
 H         -6.0552841673        1.2480446381       -0.8377487259
 H         -3.0321362170        4.0707098084        1.1940541595
 H         -4.5383660038        4.7851201868        0.6039369673
 H         -4.8226003886        2.8633054235        2.2153803954
 H         -5.6773191732        2.6551954004        0.6750974400
 O         -3.0887117339        1.1554044778        1.9260922908
 C         -2.2950024809        0.0227213701        1.8940057651
 O         -1.5130425926       -0.0826718646        2.8619722992
 O         -3.4366078228       -1.3565847915       -1.2574505077
 C         -1.5497226237       -2.1010585173        0.8418624955
 C         -0.4629803957       -1.9330593258       -0.1932848203
 C         -0.4363210089       -2.6187177939       -1.3995692841
 C          0.5832466500       -2.3902612537       -2.3086093372
 C          1.5915204464       -1.4847661148       -2.0353926998
 C          1.5762108676       -0.7962259164       -0.8282529339
 C          0.5547053515       -1.0263011161        0.0808481469
 H          0.5341030082       -0.4894259592        1.0215394565
 N          2.5947338502        0.1353445886       -0.5420016908
 S          4.1796755929       -0.3873931979       -0.8206963854
 O          4.4700044074       -0.2272366775       -2.2234395460
 O          4.3626242608       -1.7189004746       -0.2872806627
 C          5.1147234348        0.7961604371        0.1270480465
 C          5.5169702486        0.4680819196        1.4077764797
 C          6.2303070264        1.3998121245        2.1453615537
 C          6.5246632476        2.6375637111        1.5935592629
 C          6.1131443072        2.9523738170        0.3069006266
 C          5.4004578417        2.0251597890       -0.4364956556
 H          5.0688788867        2.2215999423       -1.4426658555
 H          6.3462837231        3.9149722901       -0.1188104302
 H          7.0810017123        3.3600914421        2.1694851952
 H          6.5536432337        1.1568929343        3.1448137698
 H          5.2743751047       -0.5095236616        1.7930062749
 H          2.5044266209        0.5083819283        0.3938214379
 H          2.3946922143       -1.3085237792       -2.7326596655
 H          0.5930000621       -2.9271227234       -3.2453776196
 H         -1.2186518196       -3.3213054424       -1.6335097801
 H         -1.0669765030       -2.1078505911        1.8292104225
 C         -2.3543201908       -3.3736876089        0.6906211211
 C         -1.7343558982       -4.6817796152        1.0768561492
 C         -2.8222638876       -4.0896544137        1.9203191552
 H         -3.7969874008       -4.5536562362        1.9060999851
 H         -2.5547119899       -3.6667213299        2.8779109468
 H         -1.9606808915       -5.5553372153        0.4848674400
 H         -0.7251497553       -4.6606059536        1.4603021649
 H         -3.0249210515       -3.3585850379       -0.1589898622
