  62
        -98.94621791
 C          2.8256714927        0.8897985020        0.2012014545
 C          2.4670692056        0.1607204718       -0.9601796570
 C          2.8418724336       -1.2586679771       -0.9547310014
 C          3.5714311950       -1.7553121737        0.0608139556
 C          4.0012748329       -3.1876904917        0.2230029688
 C          2.9427966208       -4.0634451816        0.9090620848
 C          1.7123008206       -4.3861946404        0.0589518049
 H          2.0317803290       -4.8075148917       -0.8946750525
 H          1.1501365454       -5.1596352008        0.5859776797
 C          0.7819901793       -3.1909369670       -0.1974188829
 H         -0.2588634055       -3.4789224208       -0.0243911937
 H          1.0066944789       -2.3923202080        0.5155093649
 C          0.8605557065       -2.6221438342       -1.6147218368
 H          0.1623965374       -1.7821828200       -1.6817674613
 H          0.5307039919       -3.3808381909       -2.3281261812
 C          2.2589459841       -2.1333398542       -2.0221255268
 H          2.1620122967       -1.5364496073       -2.9318631516
 H          2.9099471228       -2.9833172375       -2.2249822530
 H          2.6273041165       -3.5701570806        1.8317222780
 H          3.4234856294       -5.0051000244        1.1833423208
 H          4.2549069249       -3.6110841234       -0.7483619582
 H          4.8973307920       -3.1789006809        0.8470557304
 O          4.0082423574       -0.9853512447        1.0936469543
 C          3.5843465931        0.3301451883        1.2267360525
 O          3.9455968780        0.8830474659        2.2858706669
 O          1.8439810326        0.6585877974       -1.9321984849
 C          2.2854220159        2.2951882107        0.3911670158
 C          0.7803355229        2.2618996637        0.2497041235
 C          0.0542445189        3.2401861631       -0.4164725271
 C         -1.3182108052        3.1219792319       -0.5574633309
 C         -1.9954192656        2.0304484052       -0.0458391270
 C         -1.2806492571        1.0517571402        0.6319285933
 C          0.0883135352        1.1858995727        0.7920818441
 H          0.6378350588        0.4155797649        1.3216568498
 N         -1.9554879665       -0.0743144334        1.1448683465
 S         -2.8031882239       -1.0064641764        0.0257452523
 O         -2.8191668479       -2.3434958744        0.5788481350
 O         -2.2661417855       -0.8634587332       -1.3060151231
 C         -4.4481301961       -0.3286858306        0.0968350410
 C         -5.1050576266       -0.3388142909        1.3117726870
 C         -6.3847029931        0.1876828843        1.3847569467
 C         -6.9830348226        0.7105449389        0.2477777899
 C         -6.3113550501        0.7106077856       -0.9651048724
 C         -5.0304007365        0.1861685993       -1.0445452231
 H         -4.4665049881        0.1691543173       -1.9636972197
 H         -6.7779537017        1.1169613347       -1.8480466345
 H         -7.9789696111        1.1202602760        0.3072586634
 H         -6.9103041807        0.1895260563        2.3260172526
 H         -4.6050966623       -0.7582329673        2.1688232681
 H         -1.3573034483       -0.6755213499        1.6943358861
 H         -3.0604030221        1.9227538441       -0.1730652070
 H         -1.8668516835        3.8870604814       -1.0852478316
 H          0.5660308822        4.0884223604       -0.8409189968
 H          2.5350625751        2.5867559307        1.4221792123
 C          2.9548695772        3.2602491286       -0.5650766073
 C          3.1590054458        4.6933054372       -0.1772485610
 C          4.3291954913        3.7596228050       -0.2385667611
 H          5.0412393539        3.8723068496       -1.0421817885
 H          4.7684620591        3.4230693985        0.6894652149
 H          3.0714394316        5.4513478330       -0.9409244198
 H          2.8111074326        5.0032177073        0.7965796809
 H          2.7365962032        3.0321743260       -1.6021078135
