  62
        -98.94422268
 C         -2.6462767244       -1.3009105303        0.1509506982
 C         -2.6048515757       -0.2839298623       -0.8330906086
 C         -3.7099100970        0.6859415511       -0.7959835357
 C         -4.6829197779        0.5455731138        0.1226310065
 C         -5.8369399261        1.4876479034        0.3035404194
 C         -5.5017524099        2.5846316213        1.3236584127
 C         -4.1601528874        3.2729219198        1.0714752559
 H         -4.0442546619        4.0488533761        1.8312600568
 H         -3.3528086851        2.5525004737        1.2235003750
 C         -4.0210362302        3.8992495661       -0.3230683340
 H         -5.0063364326        4.0228484794       -0.7740473879
 H         -3.5850863417        4.8949283133       -0.2178376153
 C         -3.1196826878        3.1198224242       -1.2829058226
 H         -2.1595938571        2.9137975711       -0.8014262385
 H         -2.9177806793        3.7545830735       -2.1501515127
 C         -3.6896453746        1.7960661886       -1.8086677538
 H         -4.6873315014        1.9627237655       -2.2200889335
 H         -3.0369282637        1.4528791145       -2.6169121929
 H         -6.3017569840        3.3269137943        1.3080368500
 H         -5.4737294630        2.1351484297        2.3188249723
 H         -6.0896187867        1.9336998099       -0.6562466961
 H         -6.6931503737        0.9162990565        0.6659091459
 O         -4.6995360297       -0.4581667787        1.0360339413
 C         -3.6765634513       -1.3890836218        1.0886572900
 O         -3.7967459657       -2.2351024270        1.9971225905
 H          0.6833423554       -1.9239833583       -1.3532077596
 C          0.7800036627       -1.4865230041       -0.3723062345
 C         -0.2442320877       -1.6214851976        0.5491633353
 C         -0.0992076241       -1.0251328677        1.7997746777
 C          1.0440514044       -0.3178791711        2.1159282729
 C          2.0659008027       -0.1833461031        1.1908627653
 C          1.9244434191       -0.7598573215       -0.0630395694
 N          2.9535532310       -0.6365709005       -1.0085360103
 S          3.7630542583        0.8211197098       -1.1768786075
 O          2.9230588068        1.9519805514       -0.8583148911
 O          4.3161364718        0.7860784535       -2.5132668313
 C          5.0944800315        0.6960765021        0.0011104982
 C          5.8899221264       -0.4326736415       -0.0295868422
 C          6.9342666592       -0.5405132135        0.8746848787
 C          7.1672468790        0.4776602520        1.7872385480
 C          6.3629171954        1.6066916726        1.8025003089
 C          5.3157275502        1.7200080953        0.9011346305
 H          4.6610253653        2.5770146299        0.8807613629
 H          6.5454464612        2.3977350713        2.5120965445
 H          7.9800754357        0.3907993497        2.4908647201
 H          7.5618290896       -1.4171241049        0.8659394565
 H          5.6780631968       -1.2001872455       -0.7549575868
 H          2.7316885706       -1.0361552747       -1.9087584007
 H          2.9545539814        0.3784806987        1.4268378275
 H          1.1430722432        0.1367567785        3.0900740831
 H         -0.9045837049       -1.1189139877        2.5160254946
 C         -1.5367784733       -2.3362247274        0.2395818789
 H         -1.7876140744       -2.9738253703        1.0983427246
 C         -1.4928049770       -3.1952145767       -1.0059684994
 C         -0.8065344654       -4.5265526731       -0.9630744557
 C         -2.3010474697       -4.4557558019       -1.0466364259
 H         -2.7806738058       -4.7295411268       -1.9744668319
 H         -2.8777545906       -4.7054909181       -0.1679657419
 H         -0.2595019858       -4.8551461516       -1.8337086620
 H         -0.3657487739       -4.8284988324       -0.0251752650
 H         -1.4335065249       -2.6165432477       -1.9202201787
 O         -1.6996891677       -0.1879569836       -1.7039273955
