  62
        -98.94040273
 C         -0.8238153540       -1.7345577378       -0.1481411556
 C         -1.1169940127       -0.3994630257       -0.5130491962
 C         -2.2772361143        0.2264351325        0.1509653652
 C         -2.9387015151       -0.4420364917        1.1119975076
 C         -4.0918008356       -0.0288768577        2.0033581114
 C         -4.9443548753        1.1912431268        1.6638309699
 C         -5.7833240710        1.0528170091        0.3942226236
 H         -6.5606652552        0.3052620400        0.5711294636
 H         -6.2774686869        2.0087101472        0.2070853169
 C         -5.0160221042        0.6355863252       -0.8577291620
 H         -5.7290565510        0.5859936667       -1.6850829617
 H         -4.6111657193       -0.3692140018       -0.7213399988
 C         -3.8850464871        1.5745459976       -1.2730899704
 H         -4.2688068851        2.5925371630       -1.3619261662
 H         -3.5424995560        1.2571792502       -2.2612338246
 C         -2.6575703898        1.5920500733       -0.3441002562
 H         -1.8013839913        1.9529016512       -0.9205257897
 H         -2.7988355101        2.2742990937        0.4914833421
 H         -5.6327330612        1.3312207096        2.5019451722
 H         -4.3237806281        2.0812530685        1.6155258946
 H         -4.7394325905       -0.9083564410        2.0786710217
 H         -3.6560870722        0.1193148529        2.9981908675
 O         -2.5758237971       -1.7053342139        1.4830277548
 C         -1.5425383561       -2.3785773408        0.8610071235
 O         -1.3636314913       -3.5392334399        1.2856458833
 O         -0.4572012688        0.2702809000       -1.3516638998
 C          0.3067059762       -2.5525554625       -0.7539562026
 C          1.6065000011       -2.2742105378       -0.0377268267
 C          2.3911465404       -3.3077839295        0.4599513889
 C          3.5673393972       -3.0338030018        1.1352835521
 C          3.9678408298       -1.7271092855        1.3499540668
 C          3.1877882596       -0.6879231577        0.8564905823
 C          2.0324309113       -0.9669163455        0.1436131776
 H          1.4408177545       -0.1540730933       -0.2435155806
 N          3.5472718038        0.6536405720        1.0552577283
 S          2.3448284914        1.7817297795        1.3589439006
 O          3.0233247651        2.8434939083        2.0780017508
 O          1.2176698472        1.1924055333        2.0466892593
 C          1.8645044596        2.4200564849       -0.2309518056
 C          2.6607032399        2.2246849698       -1.3401487817
 C          2.2722068361        2.7858457544       -2.5462536804
 C          1.1093217907        3.5353828395       -2.6205578588
 C          0.3246501229        3.7275045384       -1.4949199876
 C          0.7040061914        3.1640773155       -0.2877362072
 H          0.1147807139        3.2728336371        0.6095624566
 H         -0.5837875316        4.3060758247       -1.5539738207
 H          0.8076673374        3.9671246584       -3.5619778668
 H          2.8767875530        2.6314148898       -3.4257507777
 H          3.5546782827        1.6292810636       -1.2539991882
 H          4.3535927160        0.8023808759        1.6445564151
 H          4.8710296802       -1.5110424728        1.9002253186
 H          4.1690430597       -3.8448104021        1.5167333452
 H          2.0646346938       -4.3293603972        0.3322081341
 H          0.0445998998       -3.6041007765       -0.5713099388
 C          0.4716766895       -2.3505928409       -2.2480099301
 C          1.1254604630       -3.4258274160       -3.0604758580
 C         -0.3458034655       -3.1734859142       -3.1955418181
 H         -0.7123665601       -2.7067549590       -4.0972067181
 H         -1.0285675570       -3.8947909799       -2.7696878369
 H          1.7736918836       -3.1338510871       -3.8720714233
 H          1.4394329562       -4.3222207542       -2.5474713143
 H          0.6647753185       -1.3214519375       -2.5194371475
