  62
        -98.94257102
 C          1.8926857239        1.3440106281        0.0246753388
 C          2.3739959886        0.4472351026        1.0121695531
 C          3.2161127319       -0.6540606115        0.5335324405
 C          3.5067401959       -0.7491050574       -0.7762234172
 C          4.3587783178       -1.8094721863       -1.4194094236
 C          3.6015789713       -3.1065624690       -1.7368661061
 C          3.2441362130       -3.9672968055       -0.5241508410
 H          2.9184388136       -4.9368941989       -0.9064306251
 H          4.1396342621       -4.1380977299        0.0740804483
 C          2.1322586278       -3.3885458802        0.3627486696
 H          1.4166734563       -4.1784107685        0.6030576224
 H          1.5871614817       -2.6197190317       -0.1904770334
 C          2.6206178689       -2.7951852999        1.6847102600
 H          1.7616320500       -2.3729955019        2.2118746125
 H          3.0457267264       -3.5863496113        2.3060872075
 C          3.6643849954       -1.6818851645        1.5281595413
 H          3.7793081926       -1.1821153368        2.4929653581
 H          4.6258266434       -2.1026988159        1.2349770475
 H          2.6913811099       -2.8547472434       -2.2869192849
 H          4.2350596691       -3.6991182319       -2.4010632749
 H          5.2132519881       -2.0325807777       -0.7799615768
 H          4.7271621865       -1.3874303132       -2.3570140260
 O          3.0506703823        0.1460671776       -1.6916999322
 C          2.2176684253        1.1986327899       -1.3250329127
 O          1.8473383184        1.8999768058       -2.2859380920
 O          2.1115577305        0.5648428994        2.2386470233
 C          0.9996349790        2.4744027808        0.4888910143
 C         -0.4649976550        2.2686902817        0.1684923761
 C         -1.4188170505        3.1093299362        0.7362619281
 C         -2.7643002001        2.9396327589        0.4673895433
 C         -3.1938686048        1.9312003757       -0.3777861001
 C         -2.2522943384        1.0885886361       -0.9504276072
 C         -0.9027941483        1.2538418586       -0.6667247246
 H         -0.1852429548        0.5837173767       -1.1198402018
 N         -2.6737473508        0.0557747826       -1.8123635616
 S         -3.7512338461       -1.0583036169       -1.1747928656
 O         -3.6404972868       -2.2276837858       -2.0164633868
 O         -5.0570296381       -0.4558437679       -1.0893100897
 C         -3.1254674333       -1.3969772164        0.4595567057
 C         -3.6717397195       -0.7501289207        1.5493925843
 C         -3.1176690154       -0.9655743189        2.8011031878
 C         -2.0333268960       -1.8177653382        2.9401169583
 C         -1.4997807339       -2.4642722757        1.8357818698
 C         -2.0449276228       -2.2478991789        0.5811325020
 H         -1.6588779842       -2.7355496012       -0.3002421855
 H         -0.6575551397       -3.1285294157        1.9469091344
 H         -1.5991261617       -1.9804994130        3.9139344274
 H         -3.5301102168       -0.4657963694        3.6625643820
 H         -4.5178857230       -0.1003761326        1.3994050681
 H         -1.9057288980       -0.4241711763       -2.2591106675
 H         -4.2374931643        1.7807383711       -0.6017009094
 H         -3.4888552739        3.5999356575        0.9182425202
 H         -1.0977779533        3.9003980940        1.3950866973
 H          1.0969285660        2.4827842279        1.5845396668
 C          1.4620631816        3.8199981264       -0.0448724944
 C          1.4371052512        5.0382250734        0.8265331198
 C          2.7452429023        4.4052601123        0.4619601641
 H          3.3939559788        4.9081162072       -0.2392197121
 H          3.2740249206        3.8531733849        1.2256518412
 H          1.1807809246        5.9854841566        0.3773776815
 H          1.1011320827        4.9263534694        1.8463421438
 H          1.2472016079        3.9478632064       -1.0990725768
