  62
        -98.93896798
 C         -2.0339952647       -0.8297649824        0.5153004645
 C         -1.9457583851       -0.1189732485       -0.7035525761
 C         -2.0213146462        1.3490702063       -0.6112525717
 C         -2.1352618313        1.9229540440        0.5986739257
 C         -2.2618008252        3.3889321525        0.9113883749
 C         -3.7401705932        3.8063383137        0.9963144575
 C         -4.3716805756        4.2176749941       -0.3330330125
 H         -5.4390772922        4.3642016617       -0.1532932585
 H         -3.9558997339        5.1778347615       -0.6450605855
 C         -4.1988424803        3.2149339755       -1.4765262729
 H         -4.3670274523        2.2022357836       -1.1058746665
 H         -4.9696761930        3.4201644323       -2.2217141158
 C         -2.8210803321        3.2987366694       -2.1507327631
 H         -2.9513227723        3.3891879449       -3.2311424168
 H         -2.3162827559        4.2070631771       -1.8227272389
 C         -1.9075633396        2.0871824900       -1.9167721056
 H         -2.1054793179        1.3279180746       -2.6803864153
 H         -0.8609998329        2.3864034387       -2.0435808854
 H         -4.2980572563        2.9710740881        1.4272233193
 H         -3.8262578590        4.6477995632        1.6867153310
 H         -1.7993127623        3.5357778638        1.8899455083
 H         -1.7230723520        3.9838247285        0.1797631261
 O         -2.2089865797        1.1993401169        1.7516720763
 C         -2.1439239461       -0.1811478859        1.7427520421
 O         -2.2003309427       -0.7101137477        2.8733769229
 O         -1.8194658744       -0.6845333440       -1.8223385972
 C         -1.9016944327       -2.3418037098        0.5156538688
 C         -0.5894828904       -2.7227305282       -0.1278191995
 C         -0.4512125346       -3.7700561715       -1.0291053484
 C          0.7778915625       -4.0345628495       -1.6088656281
 C          1.8840923070       -3.2597655594       -1.3142158733
 C          1.7599057963       -2.2224062732       -0.3959722046
 C          0.5360670307       -1.9784473996        0.2023765274
 H          0.4511362074       -1.1682223932        0.9132381169
 N          2.8675354273       -1.4276590266       -0.0487612718
 S          2.6042080717        0.1992661076        0.3205886096
 O          2.1689602232        0.3017909018        1.6923041804
 O          1.7552483779        0.8178701206       -0.6725352103
 C          4.2729459598        0.8143571262        0.1799795266
 C          5.1459870723        0.6002052706        1.2299953530
 C          6.4548994090        1.0401700624        1.1135749211
 C          6.8672346192        1.6826978344       -0.0445872793
 C          5.9794059754        1.8925613898       -1.0889474757
 C          4.6690760950        1.4533432088       -0.9795562323
 H          3.9411603002        1.5993230028       -1.7616349409
 H          6.3015020894        2.3951906249       -1.9866150339
 H          7.8863392968        2.0244247661       -0.1327127686
 H          7.1470069556        0.8806927917        1.9245353783
 H          4.7759781779        0.1046315634        2.1123839896
 H          3.6394124237       -1.5344041213       -0.6934745227
 H          2.8349686573       -3.4518584186       -1.7874821302
 H          0.8705961886       -4.8456442638       -2.3151329095
 H         -1.3083868253       -4.3692821807       -1.2892639883
 H         -1.8687651952       -2.6451359542        1.5730691346
 C         -3.1062945075       -2.9826692749       -0.1418815221
 C         -3.5745197098       -4.3383825110        0.2919704357
 C         -4.3710999661       -3.1206773804        0.6492364689
 H         -5.3130378619       -2.9522888736        0.1493473653
 H         -4.3520681563       -2.7753775496        1.6730248859
 H         -3.9749378079       -5.0084551668       -0.4537352764
 H         -3.0225901221       -4.8295236224        1.0790688685
 H         -3.1958387939       -2.7164672213       -1.1888263188
