  62
        -98.94360965
 C          1.4511683610        1.1929480473       -0.0046156525
 C          2.4987625236        0.7571385130        0.8341876142
 C          3.0799516367       -0.5666323004        0.5425205232
 C          2.5666007965       -1.2891870529       -0.4709220562
 C          3.0170110862       -2.6375057990       -0.9655684684
 C          4.3083946640       -2.5638713841       -1.7992086803
 C          5.3785799199       -1.6225153049       -1.2513953088
 H          6.1735798994       -1.5525004022       -1.9984043474
 H          4.9522411586       -0.6242220709       -1.1366902776
 C          6.0149471873       -2.0568349381        0.0665430550
 H          6.5039326788       -3.0235235480       -0.0739661705
 H          6.7886746795       -1.3250452048        0.3123635707
 C          5.0666818992       -2.1671241760        1.2612155640
 H          5.6834069886       -2.2827046115        2.1576118120
 H          4.4543003483       -3.0621715968        1.1911074267
 C          4.1871533535       -0.9428357981        1.4979187568
 H          4.8248170554       -0.0549845785        1.5799977088
 H          3.7072678391       -1.0457321347        2.4795562281
 H          4.0414854887       -2.2145432731       -2.7994020661
 H          4.7180559607       -3.5709817061       -1.8914474338
 H          3.1279574025       -3.3184807973       -0.1266128280
 H          2.2134328966       -3.0233822143       -1.5968627100
 O          1.5455430786       -0.8331122590       -1.2487371015
 C          0.9531250669        0.3936245539       -1.0314875039
 O          0.0157549494        0.6627713177       -1.8087667562
 O          2.9409169156        1.4477894375        1.7946839301
 C          0.7984136689        2.5377415836        0.2530074265
 C         -0.6863027172        2.3665979157        0.4604625705
 C         -1.6321876853        3.2540699998       -0.0384451887
 C         -2.9828997838        3.0334119652        0.1698214407
 C         -3.4200427441        1.9159364530        0.8571177798
 C         -2.4810406730        1.0283212639        1.3686625303
 C         -1.1296273142        1.2731292693        1.1935650666
 H         -0.4155217949        0.5713593728        1.5998032004
 N         -2.8676471420       -0.1445929922        2.0539534435
 S         -2.4986953822       -1.5941094599        1.2927266238
 O         -3.0702730946       -2.6189793865        2.1409515223
 O         -1.0810057756       -1.6801295533        1.0561994388
 C         -3.4133262921       -1.5184258102       -0.2373330638
 C         -2.9058324154       -0.7983055319       -1.3000380349
 C         -3.6754541527       -0.6785471089       -2.4480071675
 C         -4.9263920382       -1.2716918735       -2.5134032991
 C         -5.4199451043       -1.9927299855       -1.4361135119
 C         -4.6604559766       -2.1129213479       -0.2842220524
 H         -4.9998255594       -2.6646968620        0.5776684812
 H         -6.3916665128       -2.4566881437       -1.4892312440
 H         -5.5180886937       -1.1722121402       -3.4097279581
 H         -3.2829669816       -0.1167569203       -3.2804367567
 H         -1.9266615486       -0.3485175477       -1.2354250989
 H         -3.8450169859       -0.1552694915        2.3145847174
 H         -4.4740340116        1.7278271437        0.9962581458
 H         -3.7049596465        3.7311649732       -0.2256542624
 H         -1.3108365710        4.1177683950       -0.5973297825
 H          1.2409061298        2.9051526193        1.1915207294
 C          1.1395279606        3.5081975569       -0.8600133829
 C          1.2797764974        4.9733847583       -0.5765077013
 C          2.4949050872        4.1471125526       -0.8686651384
 H          2.9974607210        4.2793926090       -1.8150335479
 H          3.1593420607        3.9037006386       -0.0523141887
 H          0.9503234061        5.6774464474       -1.3256935078
 H          1.1265503294        5.3033601349        0.4398327060
 H          0.7227104152        3.2058515375       -1.8144329285
