  62
        -98.94516159
 C         -2.2626534210       -0.7488522166       -0.0128465174
 C         -3.2584267663       -0.6621267757        0.9928891027
 C         -4.1238930927        0.5227536441        0.9469281022
 C         -3.9048783129        1.4590782876        0.0058050817
 C         -4.7367725647        2.6933908997       -0.1853179726
 C         -5.8824619996        2.4439589722       -1.1763354747
 C         -6.6915337868        1.1811344567       -0.8800828862
 H         -7.4892944655        1.1248034209       -1.6238050931
 H         -6.0531510462        0.3068872627       -1.0266858120
 C         -7.3007044262        1.1328410476        0.5281021949
 H         -7.3184159395        2.1347180811        0.9584390194
 H         -8.3362238135        0.7951146689        0.4499606416
 C         -6.5929132970        0.1795444439        1.4927223022
 H         -7.2257593046        0.0578241761        2.3757301335
 H         -6.4896152055       -0.8032280756        1.0260459651
 C         -5.2098624120        0.6291461497        1.9805456747
 H         -5.2702728620        1.6465106745        2.3723312321
 H         -4.9122556342       -0.0362337388        2.7961503700
 H         -5.4582516905        2.3519386673       -2.1789291601
 H         -6.5428143860        3.3129971366       -1.1655752057
 H         -5.1364155175        3.0081403869        0.7767685861
 H         -4.0936210024        3.4832492039       -0.5772936389
 O         -2.9168289702        1.3610165277       -0.9191738621
 C         -2.0768969781        0.2570882247       -0.9611737281
 O         -1.2339429577        0.2995492980       -1.8786982762
 H          0.7994955632       -1.3079791416       -1.5904564432
 C          1.0074303080       -1.1879160583       -0.5391437639
 C          0.0339473505       -1.4988785452        0.3967678963
 C          0.3181048808       -1.3011039596        1.7454986820
 C          1.5466613779       -0.8089530511        2.1427064641
 C          2.5144802449       -0.4934038152        1.2042984683
 C          2.2339655011       -0.6700492928       -0.1432158147
 N          3.2043209610       -0.3404100372       -1.1052649026
 S          3.9973086206        1.1318761856       -0.9607991746
 O          3.1851620177        2.1217250788       -0.2913204599
 O          4.4378557517        1.4575119728       -2.3000847206
 C          5.4245457559        0.7390499653        0.0317538174
 C          5.7129496429        1.4923932005        1.1528052584
 C          6.8345008078        1.1755867118        1.9036807337
 C          7.6442631920        0.1171856947        1.5215590615
 C          7.3425279513       -0.6280600535        0.3913676137
 C          6.2237916888       -0.3156816197       -0.3641780237
 H          5.9560510020       -0.8677268345       -1.2494102693
 H          7.9739985964       -1.4510391590        0.0978587221
 H          8.5151733227       -0.1285055007        2.1084277302
 H          7.0703725150        1.7545401719        2.7821292449
 H          5.0507282112        2.3023003892        1.4150972020
 H          2.8872105892       -0.4783988707       -2.0544975079
 H          3.4698864520       -0.0960190580        1.5054981004
 H          1.7541238941       -0.6649281004        3.1921755163
 H         -0.4457845254       -1.5253667686        2.4769354681
 C         -1.3447887635       -1.9610586240       -0.0035428583
 H         -1.7316140074       -2.6103240486        0.7933254266
 C         -1.3854976767       -2.7199657601       -1.3129553058
 C         -0.8249899187       -4.1086609703       -1.3721356859
 C         -2.3058951992       -3.8942085802       -1.4495009235
 H         -2.8024865066       -4.0509981917       -2.3954166770
 H         -2.9069604488       -4.1598934629       -0.5923057524
 H         -0.3025783246       -4.4166563161       -2.2648921064
 H         -0.4189295733       -4.5187731389       -0.4600342096
 H         -1.2650209334       -2.0853993975       -2.1826680925
 O         -3.4153581220       -1.5369672353        1.8854874468
