  62
        -98.94759954
 C          0.7650403809        1.2675737743        0.0589443817
 C          1.4783182526        0.5911940508        1.0760642137
 C          2.4055657218       -0.4533197192        0.6217405230
 C          2.4732894776       -0.7467817235       -0.6897134209
 C          3.4433589477       -1.7137497436       -1.3025768655
 C          4.7402997086       -1.0023103834       -1.7169117942
 C          5.3369356713       -0.1102465275       -0.6280772123
 H          6.2603963063        0.3153515000       -1.0269086495
 H          4.6570099480        0.7230490891       -0.4361631384
 C          5.6371035933       -0.8325612766        0.6927871676
 H          5.6695570944       -1.9099547982        0.5271292158
 H          6.6262341098       -0.5285173581        1.0416773751
 C          4.6525243935       -0.5235076152        1.8221886729
 H          4.5488864615        0.5588856633        1.9332579839
 H          5.0722699434       -0.9085350415        2.7554938062
 C          3.2520978291       -1.1293077218        1.6632386082
 H          3.3416439259       -2.1978139857        1.4593695965
 H          2.7226882990       -1.0000966858        2.6119226201
 H          5.4708498342       -1.7588616207       -2.0088677311
 H          4.5291952434       -0.3791506289       -2.5888806017
 H          3.6643139953       -2.5053441550       -0.5899337991
 H          2.9826881525       -2.1461983458       -2.1914152588
 O          1.7001750820       -0.1404529252       -1.6255668203
 C          0.8527510906        0.9024605684       -1.2844919430
 O          0.2444060945        1.4069898337       -2.2466084121
 O          1.3583571150        0.8594736595        2.3030534759
 C         -0.1257018397        2.4362438190        0.4342732746
 C         -1.5296888303        2.2450578097       -0.0816306011
 C         -2.2804074352        3.2744274089       -0.6352917808
 C         -3.5700149459        3.0391373602       -1.0788995757
 C         -4.1381467680        1.7836641184       -0.9741513617
 C         -3.3969490051        0.7471239105       -0.4163145478
 C         -2.1070073722        0.9865091702        0.0273341451
 H         -1.5361754044        0.1818577946        0.4677259899
 N         -3.9300473692       -0.5438716261       -0.3314877423
 S         -3.3948910276       -1.6539943554        0.7855287015
 O         -4.3979481525       -2.6979358098        0.7521494681
 O         -3.1612213927       -1.0532987717        2.0783979975
 C         -1.8819147605       -2.3014399255        0.1092884997
 C         -1.8272829724       -2.5965954625       -1.2380730484
 C         -0.6763127042       -3.1727830652       -1.7502469610
 C          0.3893237652       -3.4536496174       -0.9096126715
 C          0.3213393493       -3.1450482552        0.4395437707
 C         -0.8235077100       -2.5611143807        0.9562900808
 H         -0.9107748401       -2.2938309555        1.9980534664
 H          1.1511658998       -3.3562104675        1.0941314664
 H          1.2783070432       -3.9167376380       -1.3068783785
 H         -0.6149999843       -3.4034809950       -2.8016585407
 H         -2.6764544385       -2.3713510955       -1.8616485900
 H         -4.9053992428       -0.6425383360       -0.5674934779
 H         -5.1422889851        1.6001709998       -1.3243573717
 H         -4.1413761712        3.8462333975       -1.5117714268
 H         -1.8555040703        4.2606906737       -0.7242315499
 H         -0.1655968987        2.4357948201        1.5346792535
 C          0.5124068291        3.7314396233       -0.0286176733
 C          0.3230902699        4.9972477541        0.7511780890
 C          1.6492354378        4.3000170277        0.7647759435
 H          2.4762460723        4.7487259492        0.2350332976
 H          1.9403036544        3.7694250671        1.6597962523
 H          0.2419889887        5.9288357303        0.2115097210
 H         -0.2823144029        4.9491051652        1.6437939839
 H          0.5741783003        3.7980819199       -1.1094679804
