  62
        -98.93458101
 C          1.7619455929        0.8431802508       -0.9051547647
 C          2.0115680166        0.2582012529        0.3587157149
 C          3.4298077709        0.0842893649        0.7334185710
 C          4.3969486505        0.4981282180       -0.1050547697
 C          5.9059523833        0.4853064639        0.0248264990
 C          6.5911789202       -0.3487172045        1.1041912086
 C          6.4625582307       -1.8607194322        0.9222183888
 H          7.0490042650       -2.1563127734        0.0485331865
 H          6.9002857145       -2.3479952420        1.7962447926
 C          5.0419613604       -2.3824590064        0.7213597295
 H          4.6311553946       -1.9790801035       -0.2064265475
 H          5.0987559860       -3.4678372796        0.6022369807
 C          4.0704061738       -2.0905096933        1.8632461170
 H          3.1530777022       -2.6514124222        1.6657243261
 H          4.4887150180       -2.4547601647        2.8035088992
 C          3.6798777653       -0.6127306666        2.0397772498
 H          2.7356294030       -0.5754157854        2.5909455251
 H          4.4207509810       -0.0745132956        2.6260700958
 H          6.2413357024       -0.0519944306        2.0885706552
 H          7.6552112276       -0.1006676287        1.0591291316
 H          6.2857693935        0.1821328847       -0.9561665419
 H          6.2007488625        1.5322962201        0.1573351914
 O          4.1043319414        1.0983419934       -1.2971777561
 C          2.8021742757        1.2885548529       -1.7218670911
 O          2.7029474752        1.8638886504       -2.8242277742
 H         -2.0288805779        0.1831395476       -0.3149148468
 C         -1.6844707847        1.1080434081        0.1150909515
 C         -0.4980318610        1.6805393620       -0.3121106032
 C         -0.0758258720        2.8645906658        0.2885748795
 C         -0.8143126837        3.4475672422        1.2986368101
 C         -2.0053321825        2.8774514848        1.7146566048
 C         -2.4399740328        1.7026304686        1.1164301155
 N         -3.6372820422        1.0888248163        1.5150019419
 S         -4.6608758116        0.4649700105        0.3488116139
 O         -4.6031739004        1.2323203093       -0.8742431551
 O         -5.9554363615        0.3999677601        0.9941990831
 C         -4.0850104860       -1.1941995956        0.0586191455
 C         -4.0591012417       -1.6778462328       -1.2345075303
 C         -3.6563577446       -2.9858449714       -1.4540789672
 C         -3.2890474238       -3.7833913268       -0.3809294060
 C         -3.3203982040       -3.2819206473        0.9114779964
 C         -3.7256258551       -1.9763913844        1.1379910582
 H         -3.7601726572       -1.5542874333        2.1283229652
 H         -3.0290600061       -3.9039053397        1.7424146248
 H         -2.9727654400       -4.8000379666       -0.5540707051
 H         -3.6287011168       -3.3760501225       -2.4592579501
 H         -4.3426514593       -1.0194285504       -2.0402984247
 H         -4.1456966893        1.5757771421        2.2386221464
 H         -2.5884819003        3.3350571964        2.4995966274
 H         -0.4670417976        4.3593201759        1.7615002812
 H          0.8509707792        3.3149887497       -0.0419764609
 C          0.3497586123        1.0842149023       -1.4087764602
 H          0.4564291741        1.8491751114       -2.1966799149
 C         -0.2907510086       -0.1293591803       -2.0665561807
 C          0.5452356950       -1.1710688836       -2.7466776758
 C         -0.1825200642       -1.5039608279       -1.4806809806
 H         -1.0437405941       -2.1534445552       -1.5375382323
 H          0.3856666504       -1.6119431434       -0.5710062468
 H          0.1856454873       -1.5883745293       -3.6751610918
 H          1.6186809483       -1.0539340610       -2.7084341347
 H         -1.2297822322        0.1234991271       -2.5510227340
 O          1.1066421141       -0.1030063394        1.1534173635
