  62
        -98.94398463
 C         -1.2852118214       -1.2524485695        0.1427623817
 C         -1.4432323206        0.1092328910        0.5135401304
 C         -2.5734017604        0.8239962810       -0.0930088500
 C         -3.3564736509        0.1804781305       -0.9773975493
 C         -4.5688158307        0.7677341705       -1.6390935796
 C         -5.8384310507        0.4838732420       -0.8243460490
 C         -5.7069151902        0.8234682633        0.6603084206
 H         -4.9757833105        0.1517931934        1.1161007211
 H         -6.6708709502        0.6135199343        1.1290101810
 C         -5.3050173094        2.2773257834        0.9452178591
 H         -5.9366900391        2.6639815945        1.7478409289
 H         -5.4898840193        2.8922180226        0.0637358285
 C         -3.8535339392        2.4572358931        1.3941662686
 H         -3.6387177594        1.7732734138        2.2191569893
 H         -3.7411041686        3.4753524734        1.7763880376
 C         -2.7871841396        2.2555606215        0.3098762986
 H         -1.8306081893        2.5921736814        0.7176115781
 H         -3.0295607994        2.8679080108       -0.5607569319
 H         -6.0767324413       -0.5786272980       -0.9124645180
 H         -6.6623005605        1.0534632120       -1.2582702594
 H         -4.6740104012        0.3162739496       -2.6269764091
 H         -4.4305177402        1.8410089503       -1.7528414807
 O         -3.1529266016       -1.1100308399       -1.3378084080
 C         -2.1242574319       -1.8640699499       -0.7894132975
 O         -2.0860523126       -3.0327942904       -1.2197868964
 O         -0.6770539402        0.6959046514        1.3234225197
 C         -0.1262072717       -2.0009482394        0.7810002722
 C          1.0516507581       -2.0109665410       -0.1628749980
 C          1.0762604375       -2.8148791221       -1.2981114072
 C          2.1604749573       -2.7766708535       -2.1552542875
 C          3.2318690678       -1.9369913138       -1.9053858085
 C          3.2147584285       -1.1278643227       -0.7748234593
 C          2.1291596086       -1.1733940313        0.0890898809
 H          2.1261250591       -0.5448923404        0.9670060503
 N          4.2900975690       -0.2778262630       -0.4956520604
 S          4.1497121399        1.0623485980        0.4781117583
 O          5.3230936302        1.8489687171        0.1580228973
 O          4.0285554099        0.6651994194        1.8590226288
 C          2.6940578902        1.9562945783       -0.0381565422
 C          2.3385918600        1.9861183472       -1.3714872522
 C          1.2412546503        2.7403722474       -1.7537443827
 C          0.5315013608        3.4605697187       -0.8062134733
 C          0.9049547711        3.4249846298        0.5273312767
 C          1.9932735108        2.6628370296        0.9170930772
 H          2.3030697510        2.5934628204        1.9474985772
 H          0.3507519315        3.9803424108        1.2671097263
 H         -0.3206804389        4.0488691088       -1.1084781937
 H          0.9426032401        2.7633635265       -2.7897190327
 H          2.9053308695        1.4225340362       -2.0948222318
 H          4.9794845189       -0.1731125341       -1.2239300406
 H          4.0764447977       -1.9082267149       -2.5766164587
 H          2.1699003968       -3.4049876444       -3.0330418469
 H          0.2308608471       -3.4492898019       -1.5127418265
 H          0.1596497988       -1.3975507787        1.6536688716
 C         -0.4808892523       -3.3937126988        1.2603367336
 C          0.4253707676       -4.0660974583        2.2461785041
 C         -0.9284667721       -3.5887386472        2.6764507039
 H         -1.6952305525       -4.3217003466        2.8780368448
 H         -0.9824426415       -2.7154420065        3.3104665331
 H          0.5909521370       -5.1283789685        2.1533122451
 H          1.2894694979       -3.5144370184        2.5862444734
 H         -0.9496942628       -4.0097540493        0.5048192943
