  62
        -98.94684620
 C         -1.2585138717        1.2002345997       -0.0690837827
 C         -2.0389433353        0.7125132029       -1.1430138829
 C         -2.6995687843       -0.5780259037       -0.9171247931
 C         -2.5022399913       -1.2341459014        0.2410900596
 C         -3.0945297836       -2.5668359408        0.6119555151
 C         -4.5188024689       -2.4804659089        1.1782008518
 C         -5.6093703799       -2.1610099865        0.1550219047
 H         -5.5315210816       -2.8505706285       -0.6861920065
 H         -6.5691735815       -2.3482537408        0.6406767563
 C         -5.5918406971       -0.7148314024       -0.3594343333
 H         -4.9989158895       -0.0942609080        0.3163119536
 H         -6.6078154697       -0.3135644609       -0.3530712937
 C         -5.0512429841       -0.5538048385       -1.7802805811
 H         -5.0490647509        0.5109696621       -2.0275037923
 H         -5.7142929664       -1.0605958201       -2.4851242035
 C         -3.6270378674       -1.0893569685       -1.9779378455
 H         -3.6334220766       -2.1791263994       -1.9877792904
 H         -3.2582901717       -0.7331020970       -2.9432415097
 H         -4.5346094972       -1.7306585445        1.9723483012
 H         -4.7488789514       -3.4481434698        1.6299644314
 H         -2.4472165689       -2.9923272800        1.3807419287
 H         -3.0875227026       -3.2269966867       -0.2558064571
 O         -1.7041719154       -0.7533798443        1.2296098767
 C         -1.0703795560        0.4743068192        1.1082273671
 O         -0.3814660665        0.7964979054        2.0919519888
 O         -2.1683690676        1.3203334910       -2.2408676495
 C         -0.5483132091        2.5341127017       -0.2178056989
 C          0.9405874906        2.3148844753       -0.1179892871
 C          1.7718405366        3.0184243396        0.7421942413
 C          3.1237490945        2.7241188500        0.8083270211
 C          3.6758020530        1.7331658018        0.0179105948
 C          2.8537819852        1.0330121285       -0.8561716729
 C          1.5024116313        1.3284452002       -0.9205190229
 H          0.8636216408        0.7761515517       -1.5992136243
 N          3.4035395523        0.0123466744       -1.6642455876
 S          4.0197677211       -1.3130296018       -0.8442798427
 O          5.2019065317       -0.9079084276       -0.1280755992
 O          4.1996860862       -2.3361114371       -1.8495452561
 C          2.7410378450       -1.7941462259        0.3009424106
 C          1.7746488204       -2.6837972358       -0.1236365358
 C          0.7573578143       -3.0341896727        0.7486217777
 C          0.7183649384       -2.4820690488        2.0195313108
 C          1.6882718813       -1.5797444470        2.4260071739
 C          2.7113703169       -1.2298984598        1.5602032306
 H          3.4854672878       -0.5354491608        1.8429940479
 H          1.6406790587       -1.1371466282        3.4073478713
 H         -0.0771907273       -2.7460787401        2.6982461909
 H         -0.0026948491       -3.7312721640        0.4326945925
 H          1.8448600241       -3.0967612469       -1.1175937965
 H          2.7609196740       -0.3128693293       -2.3734843539
 H          4.7218239800        1.4783830088        0.0724842271
 H          3.7562197999        3.2735427708        1.4889930835
 H          1.3611535842        3.7903518853        1.3716583617
 H         -0.7779985688        2.8776354745       -1.2373911127
 C         -1.0876247159        3.5449358106        0.7710802007
 C         -1.0189668945        5.0100504991        0.4631450173
 C         -2.3369321893        4.2979377944        0.4289105129
 H         -3.0521179868        4.4947585256        1.2134560994
 H         -2.7886556601        4.1006963401       -0.5324813340
 H         -0.8313495615        5.6996511174        1.2721858808
 H         -0.5769704224        5.3031746748       -0.4771098248
 H         -0.9606732607        3.2299098434        1.8004640973
