  62
        -98.93963638
 C          2.6387238055        1.2090128549        0.2840234387
 C          2.5196532945        0.1863659398       -0.6902946069
 C          3.7029993937       -0.6699805314       -0.8611537291
 C          4.8099747734       -0.4471906922       -0.1317685656
 C          6.0993853112       -1.2178504207       -0.2159911986
 C          6.1106465972       -2.5068359681        0.6171981547
 C          5.2556925327       -3.6474359472        0.0633179720
 H          5.5145210025       -3.8194374099       -0.9819083577
 H          5.5259999723       -4.5481357398        0.6180782813
 C          3.7420873696       -3.4246504623        0.1913343509
 H          3.5499129907       -2.6340923547        0.9205654625
 H          3.2713352221       -4.3328005986        0.5743416072
 C          3.0398362159       -3.0691957599       -1.1192768565
 H          3.1067328188       -3.9118074918       -1.8110731438
 H          1.9829530068       -2.8909520653       -0.9044554427
 C          3.5973997025       -1.8209194365       -1.8154188558
 H          4.5681985871       -2.0385939163       -2.2601834257
 H          2.9036567687       -1.5329235872       -2.6090900758
 H          5.7866445764       -2.2686832822        1.6330184850
 H          7.1463018667       -2.8503193027        0.6710242922
 H          6.3180394207       -1.4541751653       -1.2577419521
 H          6.8820180259       -0.5566771597        0.1624633420
 O          4.8877669636        0.5516102803        0.7879451801
 C          3.8021532583        1.3736162673        1.0412427255
 O          3.9947724787        2.2041805245        1.9520002614
 H         -0.7372519670        2.0375344993       -1.0112103657
 C         -0.8272360566        1.4117825769       -0.1366948364
 C          0.2144657109        1.3484520183        0.7742706388
 C          0.0830149679        0.5102624958        1.8777720752
 C         -1.0589533263       -0.2460020915        2.0597690358
 C         -2.0936094042       -0.1861552472        1.1426694874
 C         -1.9717800697        0.6442754347        0.0375535191
 N         -3.0102470703        0.6908116979       -0.9075622327
 S         -4.5748122986        0.9514920953       -0.3674965777
 O         -5.2758950945        1.5265606614       -1.4951313032
 O         -4.5894748738        1.7204754646        0.8558857271
 C         -5.2105463196       -0.6842235323       -0.0660556956
 C         -5.1559529185       -1.6057349864       -1.0933454821
 C         -5.6607641145       -2.8780986008       -0.8780149466
 C         -6.2118767778       -3.2046977301        0.3522456785
 C         -6.2617955687       -2.2673735583        1.3725459150
 C         -5.7571450140       -0.9931639913        1.1640172970
 H         -5.7693606805       -0.2337552845        1.9296022741
 H         -6.6903615246       -2.5232099219        2.3282842786
 H         -6.6045094530       -4.1957577623        0.5166376718
 H         -5.6226077212       -3.6100863962       -1.6686935339
 H         -4.7221767052       -1.3127135289       -2.0349085874
 H         -2.8011100630        1.2550837240       -1.7179601594
 H         -2.9852918720       -0.7774850836        1.2736349781
 H         -1.1441491780       -0.8918502844        2.9206485624
 H          0.8954231674        0.4567208390        2.5904169490
 C          1.4866148500        2.1434306265        0.6149785353
 H          1.7410603372        2.5682371264        1.5999345633
 C          1.3414203228        3.3229846995       -0.3350360336
 C          2.5517500569        3.9747957689       -0.9323835841
 C          1.5989957747        3.2195711166       -1.8071335665
 H          0.9652974850        3.7834067792       -2.4768643874
 H          1.9046426363        2.2625101625       -2.1986683056
 H          2.5744185168        5.0519632162       -1.0015113415
 H          3.5128578604        3.5306183155       -0.7174082458
 H          0.5399260989        3.9886065119       -0.0267620108
 O          1.4960470194       -0.0124975348       -1.3924457654
