  62
        -98.94564406
 C          1.1390146875        1.4281775593        0.7613394347
 C          2.0444305237        1.4033487067       -0.3264257691
 C          3.0135170014        0.2980869421       -0.3256211182
 C          2.9703451550       -0.6187542255        0.6580981641
 C          3.8658413843       -1.8200058710        0.7456827093
 C          3.2494214965       -3.0358879540        0.0402356069
 C          2.7194779157       -2.7400501684       -1.3623275147
 H          2.3311929190       -3.6768902567       -1.7668648995
 H          1.8770758097       -2.0481558236       -1.2874773233
 C          3.7652328362       -2.1673124834       -2.3290992385
 H          3.6711439261       -2.6774105057       -3.2900992200
 H          4.7685967002       -2.3696411869       -1.9522083885
 C          3.6225466404       -0.6697933284       -2.6052701858
 H          4.2622957191       -0.4178419831       -3.4554230029
 H          2.5924216134       -0.4446462512       -2.8934510604
 C          4.0114428535        0.2590367361       -1.4485238637
 H          5.0021359892       -0.0101574254       -1.0765684143
 H          4.0572855830        1.2783024002       -1.8431779552
 H          2.4175002277       -3.3975157374        0.6458654397
 H          4.0048427275       -3.8219040137       -0.0128590863
 H          4.8288859337       -1.5772972947        0.3002016786
 H          4.0150586469       -2.0600765533        1.7996425702
 O          2.0711129125       -0.5731452675        1.6748516702
 C          1.1347747746        0.4447885863        1.7508267521
 O          0.3666280736        0.3662280770        2.7305841533
 H         -1.2962973872        0.3223269524        0.2749481353
 C         -1.4852109726        1.0862475433       -0.4661016790
 C         -0.8643256084        2.3231444572       -0.3362283436
 C         -1.1155088448        3.2978656246       -1.2915430833
 C         -1.9579865741        3.0278100435       -2.3567636242
 C         -2.5790994003        1.7986337278       -2.4781199073
 C         -2.3433434796        0.8193643993       -1.5189244895
 N         -2.9467830471       -0.4453345719       -1.6037421135
 S         -3.5461639854       -1.1511225669       -0.2067642803
 O         -4.5392881676       -2.0928484949       -0.6810684765
 O         -4.0172290678       -0.1531252701        0.7250615297
 C         -2.1894743958       -2.0708418769        0.4850184964
 C         -1.5393819215       -2.9878533976       -0.3175731569
 C         -0.5308145668       -3.7604519845        0.2338240003
 C         -0.1936589889       -3.6059289132        1.5706484177
 C         -0.8493903500       -2.6755147021        2.3603548385
 C         -1.8603270675       -1.9011539974        1.8144619296
 H         -2.3856554738       -1.1600701523        2.3960323020
 H         -0.5742595992       -2.5364313850        3.3932896774
 H          0.5827676275       -4.2164863743        2.0053357174
 H         -0.0122612268       -4.4818616207       -0.3772455362
 H         -1.8350348979       -3.0844399189       -1.3490637423
 H         -3.5844514699       -0.5592200892       -2.3786457756
 H         -3.2393253665        1.5930827148       -3.3071658066
 H         -2.1380673585        3.7893256344       -3.1004767969
 H         -0.6440897328        4.2631979602       -1.2106227530
 C          0.0694884002        2.5048061955        0.8364147249
 H         -0.5030865679        2.3034997719        1.7537139498
 C          0.6803608082        3.8853179644        0.9351180528
 C         -0.1138459768        5.0102636909        1.5257315194
 C          1.0375672405        4.4254326255        2.2858311409
 H          1.9404576881        5.0089105914        2.3856365090
 H          0.8229010292        3.8037371043        3.1431155719
 H         -0.0011211320        5.9986186124        1.1065485863
 H         -1.1133034062        4.7888240642        1.8693985598
 H          1.3527802907        4.1074044826        0.1152871788
 O          2.0518747855        2.2583055613       -1.2500338154
