  62
        -98.93747564
 C          2.4462819758        1.0045009268       -0.1313492268
 C          3.5872642135        0.8748201466        0.6927427880
 C          4.6616989359       -0.0043416139        0.1998099759
 C          4.5062383898       -0.6391828822       -0.9773187896
 C          5.4357503735       -1.5562117145       -1.7449129751
 C          6.6619227823       -2.1684537689       -1.0727800534
 C          6.3488079588       -3.1876133072        0.0221588153
 H          7.2887134164       -3.4806495620        0.4950276956
 H          5.9194550675       -4.0778086952       -0.4443816918
 C          5.3752700736       -2.7184495790        1.1004394248
 H          5.2400187248       -3.5402069008        1.8089483035
 H          4.3999634945       -2.5175220836        0.6522249273
 C          5.8198631732       -1.4909381939        1.8932796712
 H          6.8113711023       -1.6650272220        2.3157335215
 H          5.1203267395       -1.3648844627        2.7241701642
 C          5.8467721957       -0.1682706032        1.1075183465
 H          6.7747399723       -0.0565000677        0.5519074661
 H          5.7958632817        0.6528192014        1.8286073544
 H          7.3123979263       -1.3869595726       -0.6913741221
 H          7.2189018379       -2.6883082102       -1.8570824759
 H          5.7701704459       -0.9783471842       -2.6136639571
 H          4.8033994955       -2.3596420672       -2.1358012203
 O          3.3829731000       -0.4818415820       -1.7380005201
 C          2.3306303398        0.3270949970       -1.3433020430
 O          1.3778671349        0.3570273817       -2.1446655637
 O          3.7084740391        1.4726622748        1.7960992576
 C          1.3051052227        1.8951209584        0.3255377357
 C          0.0532503451        1.0694031289        0.4894801487
 C          0.0812517775       -0.0153373487        1.3631698531
 C         -1.0352316236       -0.8075033231        1.5434893792
 C         -2.2065962250       -0.5386828406        0.8558832790
 C         -2.2493326364        0.5443609828       -0.0097078661
 C         -1.1255256501        1.3444136190       -0.1834776985
 H         -1.1759060988        2.1803657991       -0.8635224095
 N         -3.4282837652        0.8170256432       -0.7202966418
 S         -4.8971999712        0.8016021784        0.0850712354
 O         -5.7697670837        1.6382493750       -0.7094665367
 O         -4.7451280616        1.1712295036        1.4731839644
 C         -5.4427082870       -0.8884701320       -0.0422632105
 C         -5.8204149610       -1.5777405817        1.0933191848
 C         -6.2554237507       -2.8880537878        0.9685542935
 C         -6.3058644886       -3.4820406817       -0.2831141836
 C         -5.9254644960       -2.7750973407       -1.4142004105
 C         -5.4905999269       -1.4647823776       -1.2963965911
 H         -5.1879364025       -0.8823824328       -2.1506592575
 H         -5.9653306945       -3.2405210434       -2.3859077958
 H         -6.6436352086       -4.5019610614       -0.3781397007
 H         -6.5518004208       -3.4392542985        1.8465337318
 H         -5.7591380718       -1.0772970629        2.0466618981
 H         -3.3597272239        1.6027134705       -1.3501111651
 H         -3.0803590020       -1.1555466114        0.9879750932
 H         -0.9952630853       -1.6456928475        2.2226855531
 H          0.9970594430       -0.2282447395        1.8979173767
 H          1.6016116100        2.2628522136        1.3188233263
 C          1.1496832802        3.0796755042       -0.6039073861
 C          0.5043186266        4.3402213236       -0.1126351995
 C          1.9809549376        4.3028945996       -0.3651856586
 H          2.3727407815        4.8349083538       -1.2191150063
 H          2.6466429575        4.2924342823        0.4853154241
 H         -0.1174296169        4.9025094825       -0.7932810944
 H          0.1640010508        4.3606612377        0.9118124221
 H          0.9821153221        2.7850565364       -1.6339758166
