  62
        -98.93692281
 C          1.8148604748        0.4985543814        1.0978487172
 C          3.0520424220        0.9849449487        0.6054597016
 C          4.0964614283       -0.0317617055        0.3847391253
 C          3.8301201991       -1.3273046434        0.6242983935
 C          4.7816999879       -2.4616816622        0.3794190013
 C          4.6158927413       -3.0334426999       -1.0355672176
 C          4.6115907663       -1.9716317912       -2.1354074370
 H          3.7212902716       -1.3478814724       -2.0260584479
 H          4.5212472631       -2.4932935487       -3.0907870139
 C          5.8577525732       -1.0755432824       -2.1582724181
 H          6.1968258586       -0.9735933209       -3.1914096042
 H          6.6651043502       -1.5488953730       -1.5982046213
 C          5.6313287422        0.3392699409       -1.6223409413
 H          4.7652259437        0.7845249826       -2.1185483707
 H          6.5033906693        0.9450017131       -1.8831519520
 C          5.4313126075        0.4546846870       -0.1060090221
 H          5.4771132223        1.5166375225        0.1531515043
 H          6.2427939173       -0.0607039219        0.4119312009
 H          3.6691541770       -3.5766850726       -1.0816866045
 H          5.4241553835       -3.7442403990       -1.2173765253
 H          5.8017892415       -2.1105143210        0.5227472073
 H          4.5729314029       -3.2487621380        1.1060181017
 O          2.6263754794       -1.7589181796        1.0789879462
 C          1.5974137077       -0.8641548025        1.3203840675
 O          0.5480741800       -1.3948772173        1.7332894030
 H         -2.0789227710        1.2299907163        1.3131590920
 C         -1.6558770250        1.3922242151        0.3307264169
 C         -0.2793533644        1.4984533468        0.1880728164
 C          0.2453372065        1.6854329007       -1.0864950873
 C         -0.5869185083        1.7514398618       -2.1893259377
 C         -1.9588952760        1.6434801008       -2.0434453232
 C         -2.4945606534        1.4659953578       -0.7754307881
 N         -3.8962967317        1.3610731335       -0.6399864744
 S         -4.6164014485       -0.0487643853       -1.1941004962
 O         -4.0593225572       -0.3753597151       -2.4805981458
 O         -6.0410560225        0.1835259969       -1.1446841063
 C         -4.1714143167       -1.2750583040        0.0225307619
 C         -2.8559769310       -1.6902723312        0.0913213204
 C         -2.4781606255       -2.5583516721        1.1036189209
 C         -3.4238919095       -3.0061434327        2.0138594329
 C         -4.7445109409       -2.5920674405        1.9229523655
 C         -5.1224783854       -1.7071303797        0.9261224751
 H         -6.1328970811       -1.3445061155        0.8267137705
 H         -5.4754890087       -2.9461861304        2.6321108790
 H         -3.1236688315       -3.6791527008        2.8015653144
 H         -1.4422914673       -2.8447324995        1.1938817604
 H         -2.1422885170       -1.3294824684       -0.6325136229
 H         -4.2265292822        1.5517473866        0.2962356414
 H         -2.6198449264        1.6768573230       -2.8937194838
 H         -0.1637244447        1.8923278222       -3.1725667597
 H          1.3143393852        1.7828668617       -1.2035252943
 C          0.6213239343        1.3931460969        1.3933314095
 H          0.0533498135        0.8701244831        2.1796153188
 C          1.0131862221        2.7551923805        1.9497329288
 C          0.9096625071        4.0246249322        1.1652743876
 C         -0.0438954802        3.7638818889        2.2898861551
 H          0.0603173055        4.3324122347        3.2015467107
 H         -1.0647918815        3.5269758031        2.0308824913
 H          0.5350282656        3.9694299996        0.1550449500
 H          1.6890216813        4.7590894062        1.2974070030
 H          1.8514451691        2.6831847358        2.6346423264
 O          3.2965091763        2.1919954321        0.3549816351
