  62
        -98.94820158
 C          1.7131178479        0.4536406792       -0.7508440874
 C          1.8472184321        1.3265462895        0.3553137731
 C          1.0938315255        2.5848237155        0.2675556929
 C          0.2800522954        2.8068406716       -0.7799339579
 C         -0.5258028810        4.0531445774       -1.0317960982
 C         -1.8596220721        4.1129172600       -0.2759072795
 C         -1.7471663751        4.3829737399        1.2247132207
 H         -1.1149531099        5.2561624932        1.3908236317
 H         -2.7489533768        4.6329493045        1.5803107598
 C         -1.2190674996        3.1999820624        2.0477190107
 H         -1.3208199241        2.2695430021        1.4842935102
 H         -1.8304642599        3.0801804987        2.9458158000
 C          0.2316639992        3.3353436299        2.5098706523
 H          0.5066100936        2.4088624812        3.0208097222
 H          0.3136705641        4.1559500900        3.2273357327
 C          1.2431609191        3.5752555558        1.3828007035
 H          1.1429236141        4.5918673954        1.0010838438
 H          2.2472149393        3.4543489110        1.7980358544
 H         -2.4514492459        4.9149429470       -0.7235976098
 H         -2.3995202969        3.1758304372       -0.4321980005
 H          0.0722880941        4.9295746505       -0.7792461672
 H         -0.7353597799        4.0740803668       -2.1035449484
 O          0.1170429313        1.9043701612       -1.7840860885
 C          0.8259908276        0.7138949250       -1.7949870082
 O          0.5846271625       -0.0178224659       -2.7766199788
 O          2.5771155924        1.0877671329        1.3529495337
 C          2.4690898550       -0.8637331867       -0.7939236472
 C          1.9546018087       -1.7665563099        0.3012708619
 C          2.7688989714       -2.4556975960        1.1896636224
 C          2.2083651246       -3.2483886894        2.1772189215
 C          0.8361595550       -3.3579107868        2.3085975100
 C          0.0132266623       -2.6784044408        1.4172321394
 C          0.5775093993       -1.9120655673        0.4124148504
 H         -0.0647155327       -1.3926741404       -0.2842477001
 N         -1.3857221273       -2.7594108283        1.4991692979
 S         -2.2835095444       -1.3754726729        1.2034421076
 O         -1.5801402311       -0.1827433593        1.6108200989
 O         -3.5484626537       -1.6217965799        1.8667023562
 C         -2.5585329926       -1.3649579736       -0.5536985627
 C         -2.4790478483       -0.1646815729       -1.2296143121
 C         -2.7238031470       -0.1396441136       -2.5923296323
 C         -3.0479645501       -1.3144570750       -3.2517099432
 C         -3.1312605644       -2.5124477358       -2.5582684938
 C         -2.8873514257       -2.5425019151       -1.1947769335
 H         -2.9381282314       -3.4547731656       -0.6241463740
 H         -3.3810802790       -3.4234264069       -3.0781671844
 H         -3.2309174691       -1.2942730955       -4.3144129433
 H         -2.6436736114        0.7909004671       -3.1309057018
 H         -2.2039549736        0.7225674583       -0.6797731814
 H         -1.7395674654       -3.2734057005        2.2931881574
 H          0.4025482374       -3.9586971394        3.0935342893
 H          2.8507388467       -3.7768845863        2.8652976819
 H          3.8401949210       -2.3657485203        1.1165143236
 H          2.2087382485       -1.3272071877       -1.7572469277
 C          3.9643298137       -0.6348540588       -0.7496355456
 C          4.8948603497       -1.6313828836       -1.3713031850
 C          4.6825985432       -0.2978308544       -2.0206126147
 H          5.4801441393        0.4289025398       -1.9844283235
 H          4.0953536540       -0.2562402171       -2.9265751153
 H          5.8432353302       -1.8207429687       -0.8915426441
 H          4.4566524848       -2.4983759757       -1.8420085359
 H          4.2829416701       -0.1277949575        0.1533801550
