  62
        -98.94103271
 C         -2.5722077476       -0.2029524412        0.4933850288
 C         -2.2088594735        0.3367559245       -0.7655898839
 C         -2.0240901800        1.7953510717       -0.8101527877
 C         -2.2118628636        2.5231854635        0.3041110813
 C         -2.0729270362        4.0153120507        0.3940828607
 C         -0.6640738994        4.4371376233        0.8297152508
 C          0.4613736303        3.7748587527        0.0347174615
 H          1.4012867711        4.2069152056        0.3870303978
 H          0.4975867163        2.7086984543        0.2706902882
 C          0.3603374574        3.9478674215       -1.4870374345
 H          1.3531862886        4.1868394117       -1.8736413165
 H         -0.2926121622        4.7889506561       -1.7252613250
 C         -0.1192230260        2.6990650385       -2.2305597888
 H          0.4300028191        1.8284863721       -1.8617790192
 H          0.1167733606        2.8195646247       -3.2914761030
 C         -1.6200143872        2.3970323742       -2.1259708268
 H         -2.1965400504        3.3011321789       -2.3348425929
 H         -1.8654699504        1.6482697100       -2.8848462002
 H         -0.5885906871        5.5225923287        0.7349621588
 H         -0.5342294393        4.1777970917        1.8832813147
 H         -2.3095147539        4.4509156192       -0.5749960226
 H         -2.7926074677        4.3787806404        1.1304473749
 O         -2.5454004386        1.9695127184        1.4997535854
 C         -2.6895348039        0.5981821604        1.6300043758
 O         -2.9300400315        0.2186853860        2.7959750129
 O         -2.0597823374       -0.3508111534       -1.8088096135
 C         -2.7304417205       -1.7001758003        0.7010330005
 C         -1.5937000320       -2.4288565508        0.0242390258
 C         -1.7521901985       -3.5491677064       -0.7789902078
 C         -0.6482953823       -4.1553647614       -1.3562119718
 C          0.6227801628       -3.6483358639       -1.1686469066
 C          0.7902235275       -2.5165321887       -0.3749047115
 C         -0.3080442583       -1.9465490003        0.2422737262
 H         -0.1689145734       -1.0865691803        0.8828393618
 N          2.0600530560       -1.9314882126       -0.2367268101
 S          2.3182663043       -0.5731162750        0.7071095993
 O          2.1806960404       -0.8887715404        2.1151550096
 O          1.5083489802        0.5073199202        0.2080478901
 C          4.0324992349       -0.2710050724        0.3244366204
 C          5.0164180379       -0.8040873123        1.1353786512
 C          6.3458426194       -0.5871768717        0.8085004836
 C          6.6672623347        0.1540175172       -0.3186262160
 C          5.6689383883        0.6852851946       -1.1216586215
 C          4.3380522869        0.4716600241       -0.7999683102
 H          3.5275589224        0.8704219467       -1.3880536145
 H          5.9216273429        1.2644648716       -1.9950942131
 H          7.7023222606        0.3217679187       -0.5710295845
 H          7.1240295027       -0.9953966123        1.4329963534
 H          4.7195853177       -1.3627567642        2.0084722204
 H          2.8319600233       -2.5808596249       -0.2359663594
 H          1.4776846943       -4.1075068286       -1.6398325983
 H         -0.7845878097       -5.0295784877       -1.9748150114
 H         -2.7378266128       -3.9407249776       -0.9694913535
 H         -2.6155309164       -1.8465730924        1.7893322632
 C         -4.1041006516       -2.2430715862        0.3324023651
 C         -5.2994037028       -1.3423931484        0.2484210365
 C         -4.7373953461       -1.9589468434       -0.9953037762
 H         -5.3005650451       -2.7464972281       -1.4742843857
 H         -4.1885092166       -1.3311009263       -1.6788525456
 H         -6.2417142272       -1.7086116577        0.6278593863
 H         -5.1434877500       -0.2858501407        0.4135497045
 H         -4.2803005323       -3.2264117639        0.7575771005
