  62
        -98.93489586
 C         -2.5296331560       -0.2149116630        0.1348584326
 C         -2.4869551086        0.9104628216        0.9911537384
 C         -2.1264547362        2.2035491134        0.3868228609
 C         -1.8262100510        2.2545559431       -0.9240581848
 C         -1.4324256103        3.4129592056       -1.8167593261
 C         -1.0462086293        4.7619710616       -1.2175675080
 C          0.2758265887        4.7620518887       -0.4494404858
 H          0.3898148639        5.7336625318        0.0366739401
 H          1.0921309978        4.6485251713       -1.1670099065
 C          0.4383573115        3.6625422441        0.5979507790
 H          1.4310497812        3.7701382383        1.0458116864
 H          0.4214568693        2.6805921178        0.1181630586
 C         -0.5814201813        3.6838745952        1.7350125018
 H         -0.5630881953        4.6583962749        2.2282915286
 H         -0.2687355676        2.9310808136        2.4650626416
 C         -2.0309000497        3.3656235238        1.3331680338
 H         -2.5284867320        4.2412277236        0.9232971133
 H         -2.5729201623        3.0704760275        2.2367949911
 H         -1.8518521610        5.1415371901       -0.5959716252
 H         -0.9386707956        5.4559538027       -2.0556984262
 H         -0.6028449252        3.0415669654       -2.4270020199
 H         -2.2767400560        3.5631736857       -2.4989132934
 O         -1.8898353670        1.1454806309       -1.7149944519
 C         -2.1821111645       -0.1109062465       -1.2124048761
 O         -2.1121254886       -1.0193919823       -2.0615312537
 H         -0.1955084181       -0.9473716536        0.8276403734
 C         -0.3284043869       -1.9609321060        0.4758953268
 C         -1.6124022920       -2.4869132624        0.3849139860
 C         -1.7587312973       -3.7990115539       -0.0405505569
 C         -0.6440957543       -4.5507405516       -0.3775796450
 C          0.6257163834       -4.0090519617       -0.3252937069
 C          0.7809731328       -2.6887131021        0.0893496100
 N          2.0466151322       -2.0771491282        0.0714824576
 S          2.2480513035       -0.4586733372        0.4535157542
 O          2.0403128744       -0.2249729335        1.8682806360
 O          1.4626317172        0.3368776432       -0.4552872291
 C          3.9807425508       -0.2871354937        0.0711736153
 C          4.3511787633       -0.1343261005       -1.2513669547
 C          5.6975211322       -0.0343581827       -1.5637777172
 C          6.6467220660       -0.0898345525       -0.5537045509
 C          6.2603310664       -0.2409237121        0.7693436820
 C          4.9149487708       -0.3415193394        1.0878683050
 H          4.5663600734       -0.4503428625        2.1022516873
 H          6.9999813261       -0.2801088775        1.5526500671
 H          7.6939245684       -0.0121354480       -0.7996314464
 H          6.0007288509        0.0865247180       -2.5912499160
 H          3.5761996996       -0.0897655196       -1.9993313278
 H          2.8157778584       -2.6653301212        0.3538604355
 H          1.4884051084       -4.5886182096       -0.6138914075
 H         -0.7710228986       -5.5723120411       -0.7026983515
 H         -2.7424767356       -4.2309110519       -0.1250906028
 C         -2.7544501457       -1.5769521657        0.7684634185
 H         -2.6730559473       -1.3822537205        1.8526114862
 C         -4.1306717894       -2.1838351865        0.5442644722
 C         -5.2944449128       -1.3334455630        0.1331530923
 C         -4.7269337528       -2.3383595985       -0.8215553926
 H         -5.3045219278       -3.2273023819       -1.0292983563
 H         -4.1463692072       -1.9831059226       -1.6577944734
 H         -5.1041523545       -0.2866497368       -0.0566067748
 H         -6.2570209459       -1.5296544096        0.5814134108
 H         -4.3476281381       -2.9713182258        1.2597669567
 O         -2.7346395033        0.8376218767        2.2272975443
