  62
        -98.94429142
 C          1.8282969013        1.0845897873       -0.1344116385
 C          2.3148863367       -0.0489430103       -0.8286706280
 C          3.7780091848       -0.1884102978       -0.8763272200
 C          4.5503319407        0.7471517685       -0.2943247065
 C          6.0486035110        0.6986525270       -0.2219666025
 C          6.5202550529       -0.0072364524        1.0571391380
 C          5.8328219123       -1.3487033793        1.3119999603
 H          6.2649603258       -1.7675939797        2.2233572084
 H          4.7724391693       -1.1752024177        1.5091030897
 C          5.9735865577       -2.3618805482        0.1674470937
 H          6.7961841533       -2.0704702664       -0.4866460480
 H          6.2258573860       -3.3362819881        0.5910376204
 C          4.7067946701       -2.5545549148       -0.6685016154
 H          3.8576892988       -2.7546353930       -0.0097244980
 H          4.8459654343       -3.4370210281       -1.2988683628
 C          4.3335531556       -1.3875940119       -1.5914153501
 H          5.1955807012       -1.1097837959       -2.2014663769
 H          3.5374733543       -1.7331684147       -2.2577056742
 H          7.5994966387       -0.1562910398        0.9910476606
 H          6.3189391576        0.6475823418        1.9080569153
 H          6.4326223671        0.1803916310       -1.0984045838
 H          6.4264216344        1.7224282768       -0.2218227992
 O          4.0450135639        1.8321374859        0.3462995437
 C          2.6770346984        2.0227403601        0.4527963671
 O          2.3464465315        3.0455817661        1.0858516657
 H         -1.8101503027       -0.2249130089       -0.8905820454
 C         -1.4016665359       -0.5429256222        0.0537353419
 C         -0.3236778113        0.1190815180        0.6187039324
 C          0.1805498825       -0.3401948948        1.8339557967
 C         -0.3630792367       -1.4479715813        2.4525835456
 C         -1.4311357784       -2.1159707088        1.8789507253
 C         -1.9476023348       -1.6614785216        0.6721343385
 N         -3.0222822029       -2.3263819230        0.0692440794
 S         -4.1572209027       -1.5077749156       -0.8317922649
 O         -5.3191078134       -2.3714535050       -0.8103946269
 O         -3.6426045004       -1.1868106263       -2.1391242333
 C         -4.5060212294       -0.0059213804        0.0682180230
 C         -4.7178983329       -0.0715853932        1.4312862232
 C         -5.0008767503        1.0953865983        2.1221146601
 C         -5.0729185931        2.3019959081        1.4427572909
 C         -4.8674317801        2.3503809916        0.0730908754
 C         -4.5806631170        1.1861375231       -0.6217069174
 H         -4.4077949404        1.1785236089       -1.6856167374
 H         -4.9259770692        3.2882052644       -0.4559202439
 H         -5.2913858681        3.2093413428        1.9835001576
 H         -5.1629849061        1.0608631732        3.1873831817
 H         -4.6622456136       -1.0220115216        1.9360355185
 H         -3.4208671321       -3.0850364176        0.6009586360
 H         -1.8522020247       -2.9888797123        2.3540371585
 H          0.0452609361       -1.7961099314        3.3894223868
 H          1.0173047457        0.1813990490        2.2791438998
 C          0.3314433426        1.3175521691       -0.0215350650
 H          0.2078316391        2.1771562182        0.6532047392
 C         -0.2372105966        1.6794471583       -1.3769474960
 C         -1.4497123113        2.5528980363       -1.4781492787
 C         -0.1040818253        3.0923305936       -1.8574383169
 H          0.1095798641        3.2644147114       -2.9017415957
 H          0.3738527213        3.7967951410       -1.1921363425
 H         -2.1590951560        2.3519595010       -2.2665240878
 H         -1.8957796209        2.8975698976       -0.5575990574
 H         -0.1133552104        0.8889951610       -2.1088948090
 O          1.5705786752       -0.9015032787       -1.3799398849
