  62
        -98.94385565
 C         -1.6929149614       -1.4193342806        0.2602382409
 C         -1.8392698762       -0.2711939779        1.0831930469
 C         -3.1052797485        0.4639274370        0.9683963443
 C         -4.0334654882        0.0329097829        0.0947536202
 C         -5.3623333243        0.6883878003       -0.1440253761
 C         -5.2813339534        1.7300487124       -1.2681417494
 C         -4.1271946202        2.7187409037       -1.1068073764
 H         -3.1820138048        2.1814703047       -1.2133460857
 H         -4.1886490765        3.4297271401       -1.9333008019
 C         -4.1303983327        3.4804698040        0.2259452243
 H         -5.1159120435        3.4167225979        0.6882967506
 H         -3.9340699068        4.5361873283        0.0275299089
 C         -3.0700986311        3.0109383811        1.2231630873
 H         -2.0972218163        2.9839885666        0.7273818179
 H         -3.0068837257        3.7483455992        2.0278475154
 C         -3.3140378726        1.6446171393        1.8757320892
 H         -2.5880619750        1.5301117271        2.6864751159
 H         -4.3162952370        1.6195037963        2.3094447869
 H         -6.2274075167        2.2733927808       -1.3029837274
 H         -5.1551295430        1.2057418399       -2.2180949482
 H         -6.0783539100       -0.0847744763       -0.4280091042
 H         -5.6985515822        1.1587472868        0.7781970649
 O         -3.8430095284       -1.0413691180       -0.7081837332
 C         -2.6773348144       -1.7934457808       -0.6557566947
 O         -2.6651976948       -2.7380019467       -1.4685847124
 H          2.0850466316       -1.3619272894        0.9537882710
 C          1.8914456146       -1.4439857015       -0.1047646393
 C          0.6492019644       -1.8656666827       -0.5547435446
 C          0.4320218742       -1.9710885834       -1.9246114501
 C          1.4406760832       -1.6558193268       -2.8163638017
 C          2.6750708296       -1.2217681400       -2.3642738268
 C          2.9025545972       -1.1149409277       -0.9976412326
 N          4.1501449522       -0.6965005058       -0.5069678672
 S          4.2335445758        0.4301620350        0.7287276638
 O          5.6133534513        0.8635212716        0.7239255440
 O          3.7543679987       -0.1472466808        1.9574365666
 C          3.1833024372        1.7634469676        0.1837165559
 C          3.7394757489        2.7096796465       -0.6568639921
 C          2.9390562280        3.7228020650       -1.1567316085
 C          1.5949964696        3.7683096017       -0.8170780525
 C          1.0546924062        2.8114589811        0.0264096632
 C          1.8493734887        1.7962189491        0.5354912735
 H          1.4347585491        1.0504077032        1.1951169860
 H          0.0115402077        2.8372171634        0.2996939184
 H          0.9659587079        4.5528751569       -1.2073215552
 H          3.3614315280        4.4703116396       -1.8087139738
 H          4.7906211652        2.6424385968       -0.8866728443
 H          4.8279297010       -0.4851232768       -1.2252824807
 H          3.4593883980       -0.9744505460       -3.0633607781
 H          1.2624635388       -1.7443821709       -3.8773825700
 H         -0.5314308569       -2.3038165461       -2.2794776695
 C         -0.4201282839       -2.2263587059        0.4482861404
 H         -0.0444758094       -1.9405545624        1.4410865789
 C         -0.6469366820       -3.7264105305        0.4433486245
 C          0.3574321305       -4.6120400529        1.1147147654
 C         -0.9993891939       -4.4210282895        1.7225003412
 H         -1.7032431613       -5.2388962011        1.6869770922
 H         -1.0771981620       -3.8174027114        2.6153754814
 H          0.5885975532       -5.5637708508        0.6616307468
 H          1.2004702876       -4.1387390490        1.5961210299
 H         -1.1116819276       -4.0885090517       -0.4641786187
 O         -0.9513095792        0.1105343228        1.8929673054
