  62
        -98.94759877
 C          2.5296868146       -0.2840279893       -0.0082811670
 C          2.2230049243       -1.2955951162        0.9315489410
 C          1.5909055823       -2.5064418540        0.3940312703
 C          1.3601010475       -2.5948176296       -0.9285274007
 C          0.7200035117       -3.7691494447       -1.6111400057
 C         -0.7975331483       -3.5934190046       -1.7470472993
 C         -1.5014822273       -3.2076777140       -0.4457925365
 H         -1.2159498622       -2.1885477167       -0.1738395646
 H         -2.5742830284       -3.1861651277       -0.6539803700
 C         -1.2312998265       -4.1458399862        0.7382194433
 H         -0.8662170740       -5.1080661272        0.3759467008
 H         -2.1749422595       -4.3280019762        1.2565876702
 C         -0.2565612033       -3.5863978098        1.7767177442
 H         -0.5468822981       -2.5618632249        2.0273150609
 H         -0.3451649305       -4.1865177103        2.6866731007
 C          1.2233296574       -3.5874084840        1.3707116771
 H          1.8168229263       -3.3919059962        2.2688457773
 H          1.4994932659       -4.5708401140        0.9834472657
 H         -1.2176140796       -4.5264136098       -2.1288077409
 H         -0.9902101650       -2.8034695104       -2.4767128377
 H          1.1542956098       -3.8589681386       -2.6087536907
 H          0.9423322345       -4.6725269631       -1.0458585245
 O          1.6818189079       -1.6088140501       -1.8042799199
 C          2.2246522134       -0.4124558571       -1.3633402502
 O          2.4121213693        0.4293096985       -2.2635400602
 H          0.4976392382        0.8742215025        0.9939326147
 C          0.7412346226        1.8264298229        0.5454425770
 C          2.0625827035        2.1161681116        0.2316656103
 C          2.3544565731        3.3570596442       -0.3184604820
 C          1.3373107549        4.2600903347       -0.5799559000
 C          0.0165868900        3.9406924541       -0.3231557950
 C         -0.2821922989        2.7079048843        0.2464560584
 N         -1.6067235130        2.3238560008        0.5293201638
 S         -1.9698221417        0.6899491563        0.2611826255
 O         -1.6318074522       -0.0569696012        1.4472099021
 O         -1.3756930624        0.2480517747       -0.9792442098
 C         -3.7442430588        0.7716310661        0.1040689716
 C         -4.3163600912        0.7559192219       -1.1535602752
 C         -5.6948927716        0.8516868503       -1.2642952474
 C         -6.4726894093        0.9645321690       -0.1217822294
 C         -5.8838888286        0.9776810402        1.1341613294
 C         -4.5065726465        0.8802035073        1.2519406891
 H         -4.0041720411        0.8753500771        2.2051012980
 H         -6.4918602449        1.0622384844        2.0203062382
 H         -7.5448573391        1.0397748472       -0.2107936467
 H         -6.1548157003        0.8376352342       -2.2392525700
 H         -3.6701449885        0.6589203244       -2.0115070151
 H         -2.2881591353        2.9285566856        0.0898788964
 H         -0.7757373560        4.6338255271       -0.5619932519
 H          1.5758737505        5.2191450093       -1.0144001715
 H          3.3741246107        3.6110906923       -0.5579045091
 C          3.0874279499        1.0382253569        0.4907713397
 H          3.1949068316        0.9180073151        1.5796989830
 C          4.4458662252        1.3301981967       -0.1080218435
 C          5.4364552213        2.1670506702        0.6437771141
 C          5.6578234894        0.6922960368        0.4998792897
 H          6.4420547734        0.3473654878       -0.1569186131
 H          5.5042745395        0.0632074005        1.3646174735
 H          6.0743797844        2.8359012751        0.0861317909
 H          5.1403796695        2.5416486181        1.6119340372
 H          4.4129894619        1.4158997104       -1.1881482968
 O          2.4744844855       -1.1914642860        2.1644482190
