  62
        -98.94624061
 C         -1.5850277309       -1.5833821989       -0.2483103406
 C         -1.4453162892       -0.2251944238       -0.6244487222
 C         -2.6980877543        0.5320377205       -0.7408322351
 C         -3.8743025320       -0.0788068004       -0.5115787211
 C         -5.2336803611        0.5607139017       -0.5980273993
 C         -5.6470036647        1.3159062004        0.6730136851
 C         -4.9132633966        2.6357525228        0.9158105033
 H         -4.9736023022        3.2532836856        0.0192232688
 H         -5.4523968515        3.1590830803        1.7080485462
 C         -3.4456349740        2.4779420795        1.3387498011
 H         -3.2392296010        3.1348201165        2.1866625067
 H         -3.2726864384        1.4543210160        1.6789310611
 C         -2.4305353478        2.8134522735        0.2458145525
 H         -2.4992956517        3.8746985720       -0.0023400856
 H         -1.4284367778        2.6177721038        0.6355798046
 C         -2.5998249599        1.9968353316       -1.0413396198
 H         -1.7123118202        2.1457108802       -1.6604848591
 H         -3.4775103044        2.3342102875       -1.5919064253
 H         -6.7156068339        1.5284842477        0.5920961601
 H         -5.5046295688        0.6564315259        1.5323619277
 H         -5.2678079481        1.2372033638       -1.4523682335
 H         -5.9486407126       -0.2476320826       -0.7658590150
 O         -3.9651262698       -1.3941819859       -0.1753865004
 C         -2.8276189102       -2.1689467960       -0.0101013026
 O         -3.0524348227       -3.3448644435        0.3433323558
 O         -0.3396599261        0.3275123618       -0.8508490837
 C         -0.3442766170       -2.4389720553       -0.0606192669
 C          0.5275864601       -1.7931307311        0.9880446410
 C          0.0120592224       -1.6385338648        2.2732916549
 C          0.7519149317       -1.0214535981        3.2623751762
 C          2.0177424369       -0.5328595871        2.9872931225
 C          2.5416378738       -0.6850467075        1.7097225351
 C          1.8015863565       -1.3205166604        0.7209094679
 H          2.2374201393       -1.4303751452       -0.2570243288
 N          3.8275869067       -0.2158971514        1.4084306292
 S          4.1919084368        0.4111249591       -0.0942598094
 O          4.3007542012       -0.6488865065       -1.0655124131
 O          5.4052555299        1.1704880710        0.1337312651
 C          2.8818341548        1.5362373688       -0.5384785249
 C          2.4366036364        2.4463481253        0.3985478678
 C          1.4692567772        3.3658226178        0.0306756455
 C          0.9729804939        3.3668813499       -1.2630538288
 C          1.4304808855        2.4471489112       -2.1912954039
 C          2.3926486286        1.5204844088       -1.8267735486
 H          2.7661307105        0.7795139481       -2.5157608718
 H          1.0351061949        2.4405957748       -3.1948032107
 H          0.2187872632        4.0847721125       -1.5459132928
 H          1.1027878397        4.0776759476        0.7535018370
 H          2.8426103605        2.4300745244        1.3972510588
 H          4.2827793470        0.2983400631        2.1478203334
 H          2.5960750150       -0.0429205424        3.7557710772
 H          0.3390755755       -0.9108614602        4.2538037442
 H         -0.9832149864       -2.0085525091        2.4812865291
 H         -0.6921745470       -3.4074677905        0.3260102713
 C          0.3558173442       -2.6631066364       -1.3835252409
 C          1.2786702411       -3.8312692132       -1.5512922816
 C         -0.0514128385       -3.8206838359       -2.2421251429
 H         -0.0766388905       -3.6852377272       -3.3130268272
 H         -0.8294372788       -4.4693248875       -1.8660016025
 H          2.1720590311       -3.7006846178       -2.1434972467
 H          1.4060875062       -4.4915515903       -0.7065738697
 H          0.6121674350       -1.7373855332       -1.8859824210
