  62
        -98.94666439
 C          1.4658569214        1.4613423515       -0.4288477978
 C          2.7337292343        1.3903248158        0.2012160058
 C          3.5384589557        0.2038233967       -0.1070848244
 C          3.0520253943       -0.7326688091       -0.9419896843
 C          3.7601527878       -1.9910435709       -1.3668916475
 C          3.6302812085       -3.1551318667       -0.3747824135
 C          4.4311227458       -3.0031335789        0.9187724106
 H          4.4200745749       -3.9738352837        1.4186438080
 H          5.4698674668       -2.7738338765        0.6790994606
 C          3.8776526968       -1.9448108098        1.8834221919
 H          2.8508542295       -1.6959980382        1.6048991888
 H          3.8447793753       -2.3546004566        2.8954762718
 C          4.6959070406       -0.6551373476        1.9423964708
 H          4.1975150829        0.0371691432        2.6257787982
 H          5.6888919781       -0.8678185870        2.3448010158
 C          4.8570960859        0.0486931756        0.5886751978
 H          5.2584470929        1.0491465557        0.7682122851
 H          5.5576633233       -0.5006462298       -0.0399239881
 H          2.5754698770       -3.2927918722       -0.1294745476
 H          3.9749822380       -4.0574756774       -0.8851594938
 H          3.3122585740       -2.2938209142       -2.3157229212
 H          4.8155389690       -1.7757449539       -1.5371291790
 O          1.8350403378       -0.6227748195       -1.5347443008
 C          1.0048287978        0.4603881622       -1.2856366096
 O         -0.0825015882        0.4124592631       -1.8899973877
 O          3.1723533885        2.2784578422        0.9795202277
 C          0.5693728726        2.6442548351       -0.0987785256
 C         -0.5879045931        2.1048210217        0.7025473404
 C         -0.4217253609        1.8649850409        2.0638393090
 C         -1.4248135447        1.2686617644        2.8050189105
 C         -2.6082645485        0.8802552231        2.2002490123
 C         -2.7770028410        1.1052262288        0.8409087612
 C         -1.7827839985        1.7346009808        0.1047912822
 H         -1.9284986424        1.8954526508       -0.9512139528
 N         -3.9619264427        0.6718785278        0.2058627046
 S         -4.2462843802       -0.9796452833        0.2326074416
 O         -5.2947402073       -1.2033993718       -0.7370700957
 O         -4.5410106434       -1.3767948251        1.5869295438
 C         -2.7327007234       -1.7510807797       -0.3095208654
 C         -2.5706918232       -2.0220147872       -1.6526525664
 C         -1.3849779878       -2.5914678603       -2.0839175100
 C         -0.3810469470       -2.8684036185       -1.1705214715
 C         -0.5550549385       -2.5806278878        0.1735657589
 C         -1.7415667694       -2.0172229502        0.6130730930
 H         -1.9126893808       -1.7864130335        1.6520428989
 H          0.2312785117       -2.7866112914        0.8839658410
 H          0.5457033846       -3.3016894520       -1.5128951471
 H         -1.2406216746       -2.8062158207       -3.1304813234
 H         -3.3759307960       -1.7917137956       -2.3319508092
 H         -4.0270160675        0.9937976351       -0.7503125581
 H         -3.3907172315        0.3865578181        2.7535988563
 H         -1.2831614263        1.0956597055        3.8612596616
 H          0.5140434452        2.1391225909        2.5308645526
 H          1.1694150237        3.2947359869        0.5511359207
 C          0.1612616964        3.4250629664       -1.3294120406
 C         -0.4503229347        4.7834456986       -1.1644665115
 C          0.9376625604        4.6476376999       -1.7125321054
 H          1.1005307471        4.8459638244       -2.7613315538
 H          1.7669805872        4.9319001528       -1.0816298417
 H         -1.2422379870        5.0791311834       -1.8356103375
 H         -0.5641764217        5.1588881031       -0.1587480941
 H         -0.2011574470        2.8002379971       -2.1364244401
