  62
        -98.94702518
 C          1.5156525228        1.0798958109        0.0737484893
 C          2.5190707919        0.6092759263        0.9507681463
 C          3.0801869192       -0.7102809149        0.6365813206
 C          2.5884809898       -1.4015525319       -0.4085102818
 C          3.0952249469       -2.7386400540       -0.8644977249
 C          4.2050177732       -2.5871574410       -1.9144163633
 C          5.3056131759       -1.6059438402       -1.5108024971
 H          6.0479097293       -1.6023780866       -2.3116917597
 H          4.8831456278       -0.6000543698       -1.4577155500
 C          5.9923757480       -1.9367747541       -0.1784952282
 H          5.7971723556       -2.9753290117        0.0910377609
 H          7.0718646708       -1.8313409073       -0.3046414275
 C          5.5896830984       -1.0284623757        0.9846117949
 H          6.2837045796       -1.2052284814        1.8106105908
 H          5.6951302976        0.0175157132        0.6861042597
 C          4.1704487486       -1.2316533657        1.5305410062
 H          4.0885343339       -0.6653657331        2.4633712771
 H          4.0091233803       -2.2879113136        1.7577168632
 H          4.6405942176       -3.5707758708       -2.0990332131
 H          3.7543588841       -2.2342483923       -2.8447740232
 H          2.2590562338       -3.2877849881       -1.3012662394
 H          3.4657892243       -3.2924648854       -0.0038144818
 O          1.5966884517       -0.9344684938       -1.2058858675
 C          1.0230804844        0.3040499124       -0.9767091399
 O          0.1084930209        0.6029787434       -1.7681094163
 O          2.9195155756        1.2601954253        1.9561104792
 C          0.8741977105        2.4318793002        0.3374406169
 C         -0.6111340509        2.2408042631        0.5121497489
 C         -1.5739556481        3.0071056686       -0.1313746774
 C         -2.9193001948        2.7077228311        0.0037546006
 C         -3.3303224742        1.6271996370        0.7629810738
 C         -2.3751777439        0.8729620821        1.4302908443
 C         -1.0353604690        1.1980443325        1.3273933698
 H         -0.2995419960        0.5907564618        1.8410492043
 N         -2.7920658376       -0.2984023934        2.1320655152
 S         -2.5374708847       -1.6594552837        1.1575889067
 O         -3.0494721753       -2.7836666316        1.9139774597
 O         -1.1496238189       -1.7710346172        0.7582561117
 C         -3.5865813687       -1.3210988280       -0.2344677862
 C         -4.9237679946       -1.6552730498       -0.1374671060
 C         -5.7685756162       -1.3478028008       -1.1912087400
 C         -5.2638654415       -0.7082442992       -2.3139072778
 C         -3.9195882234       -0.3787443209       -2.3929117742
 C         -3.0657240957       -0.6849706984       -1.3439071981
 H         -2.0158559355       -0.4333071446       -1.3772454724
 H         -3.5227965332        0.1217962103       -3.2615177058
 H         -5.9214340461       -0.4640302610       -3.1333143361
 H         -6.8143340254       -1.6032284167       -1.1331440460
 H         -5.2653362727       -2.1519182419        0.7557831918
 H         -2.2742839363       -0.4386204763        2.9907369422
 H         -4.3703396964        1.3562621381        0.8431022767
 H         -3.6537803514        3.3074486563       -0.5107920116
 H         -1.2681426988        3.8294687742       -0.7572573478
 H          1.3015775872        2.7813947421        1.2892033692
 C          1.2359980972        3.4158663476       -0.7549169275
 C          1.2988759374        4.8841812745       -0.4600045995
 C          2.5615231357        4.1116124084       -0.6918810107
 H          3.1049865839        4.2700754849       -1.6111985796
 H          3.1943112327        3.8938748109        0.1562745364
 H          0.9779822702        5.5774002104       -1.2226257670
 H          1.0781425144        5.2014539318        0.5478351301
 H          0.8818988913        3.1006693559       -1.7301322830
