  62
        -98.93088631
 C         -1.7621951701       -0.5354834299        1.0210581494
 C         -2.9800483399       -1.0169365102        0.4858521794
 C         -4.0470969400       -0.0152188304        0.2533222088
 C         -3.8015611301        1.2798816097        0.5193160283
 C         -4.7080083501        2.4663003596        0.3231934077
 C         -4.8239699599        2.8893172190       -1.1496747625
 C         -5.0174999397        1.7391612686       -2.1341390321
 H         -4.9836362595        2.1570147882       -3.1438690622
 H         -4.1798060596        1.0451394287       -2.0439429716
 C         -6.3302882896        0.9731723286       -1.9890720220
 H         -7.1654274597        1.6671975285       -2.1076947324
 H         -6.3781230194        0.2539934982       -2.8108759717
 C         -6.5160747298        0.2062410191       -0.6777844417
 H         -7.3535913697       -0.4829860310       -0.8206745316
 H         -6.8017478800        0.8730215594        0.1314480279
 C         -5.3193034198       -0.6437573407       -0.2631167112
 H         -5.6418128299       -1.3392678304        0.5213585690
 H         -5.0238873396       -1.2804461110       -1.1049285809
 H         -5.6522693499        3.5939720489       -1.2419647929
 H         -3.9044622099        3.4116606590       -1.4252418925
 H         -5.6876461502        2.2624101097        0.7451004576
 H         -4.2687200603        3.2918636098        0.8876486775
 O         -2.5964233202        1.7035032600        0.9977722684
 C         -1.5647540302        0.8262436402        1.2617989189
 O         -0.5331378003        1.3661566604        1.7072793289
 H          2.1212829899       -1.2090166695        1.3484014704
 C          1.7325762701       -1.3893503500        0.3550373704
 C          0.3635652902       -1.5236834801        0.1709723602
 C         -0.1182400596       -1.7324324207       -1.1171264398
 C          0.7496648906       -1.7967572610       -2.1922916896
 C          2.1144172506       -1.6633244909       -2.0050792895
 C          2.6068781603       -1.4590704503       -0.7234929694
 N          4.0008071403       -1.3272070702       -0.5434865692
 S          4.7289560703        0.0675248297       -1.1231969497
 O          4.2342755605        0.3300989391       -2.4492476498
 O          6.1518859003       -0.1425915902       -0.9925909393
 C          4.2094452700        1.3418133401        0.0122551998
 C          2.8824794200        1.7250838600        0.0135102094
 C          2.4482369997        2.6362606103        0.9633044889
 C          3.3500911895        3.1583119607        1.8784435889
 C          4.6828885196        2.7753295108        1.8549119593
 C          5.1172426498        1.8478106405        0.9217991597
 H          6.1390700298        1.5070228705        0.8768157600
 H          5.3797744194        3.1873050612        2.5671326492
 H          3.0057428693        3.8651496110        2.6169216485
 H          1.4034705997        2.9005932803        1.0039884286
 H          2.2039420301        1.3068486597       -0.7131955306
 H          4.3004520601       -1.4803574598        0.4097511209
 H          2.8021585307       -1.6961301611       -2.8338422093
 H          0.3603016308       -1.9568014214       -3.1865147297
 H         -1.1813271096       -1.8487089008       -1.2658610500
 C         -0.5746990401       -1.4266997097        1.3473746000
 H         -0.0342987802       -0.9035894094        2.1528928099
 C         -0.9769741501       -2.7922414595        1.8875047304
 C         -0.8435055398       -4.0598867398        1.1047197610
 C          0.0754730799       -3.7955741293        2.2569265110
 H         -0.0512531002       -4.3663475190        3.1643277312
 H          1.1018615800       -3.5514207893        2.0278001411
 H         -1.6223295998       -4.7987609799        1.2134697711
 H         -0.4399117497       -4.0016896502        0.1059703310
 H         -1.8355184602       -2.7257296093        2.5475536603
 O         -3.1997780198       -2.2214266204        0.1993107298
