  62
        -98.93867630
 C          1.3529000914        1.6093068986        0.4048218138
 C          1.5809553650        0.3497500039        1.0086661046
 C          2.7835522306       -0.3864828142        0.5803765583
 C          3.5801180070        0.1481315696       -0.3641291390
 C          4.8900968521       -0.3278903961       -0.9580836567
 C          5.4047893601       -1.7379546275       -0.6837992098
 C          4.5957955717       -2.8492511643       -1.3533552750
 H          4.9573020637       -3.8102829804       -0.9818057840
 H          4.7878652200       -2.8150063182       -2.4287084032
 C          3.0841535438       -2.7731214304       -1.1545314553
 H          2.6304259404       -3.5897859452       -1.7220177675
 H          2.7047355744       -1.8401128854       -1.5761766463
 C          2.6071955495       -2.8946058348        0.2904658156
 H          2.9864280674       -3.8214711415        0.7248634292
 H          1.5158594851       -2.9500592261        0.2712525136
 C          2.9914478182       -1.7305580189        1.2172552386
 H          4.0112914990       -1.8329176490        1.5801311402
 H          2.3285702940       -1.7603185116        2.0868677577
 H          5.4813349058       -1.9066845622        0.3862678056
 H          6.4215113607       -1.7827091761       -1.0835339228
 H          4.8009979626       -0.1816855340       -2.0393786939
 H          5.6433375701        0.3895093771       -0.6139344605
 O          3.2973218226        1.3511786961       -0.9447010980
 C          2.1845285462        2.1006575973       -0.5995559580
 O          2.0673642005        3.1576335772       -1.2474971349
 H         -1.3802114694        0.2882527061        0.2699606701
 C         -1.5908956361        1.1008891497       -0.4099921364
 C         -0.9065100141        2.3025656565       -0.2664170427
 C         -1.1733750619        3.3351921915       -1.1558632319
 C         -2.1049652799        3.1619665356       -2.1645650361
 C         -2.8014299641        1.9740003436       -2.2894784721
 C         -2.5432332436        0.9345665668       -1.4020479660
 N         -3.2311859075       -0.2847684525       -1.4992809472
 S         -3.7979083871       -1.0269186494       -0.1054417035
 O         -4.9601166063       -1.7719059523       -0.5450598637
 O         -4.0219903170       -0.0664019167        0.9489724797
 C         -2.5330566735       -2.1906007051        0.3522665627
 C         -1.9334825814       -2.1105221401        1.5922999167
 C         -0.9968044625       -3.0680787117        1.9468739234
 C         -0.6802522001       -4.0849513671        1.0597861004
 C         -1.2887959385       -4.1493925401       -0.1856281493
 C         -2.2253276723       -3.1949716345       -0.5451024509
 H         -2.7300632391       -3.2168369577       -1.4966618406
 H         -1.0357023203       -4.9404215671       -0.8732467524
 H          0.0432483223       -4.8336029215        1.3426485065
 H         -0.5141430026       -3.0071949917        2.9087799531
 H         -2.2015010349       -1.3034156077        2.2554256829
 H         -3.9221207867       -0.3174011364       -2.2351478367
 H         -3.5389558265        1.8473596720       -3.0678698102
 H         -2.2996300734        3.9681716682       -2.8557783350
 H         -0.6395870818        4.2669380872       -1.0691154397
 C          0.1252282238        2.3975171480        0.8303892947
 H         -0.2731699236        1.8646096921        1.7053567037
 C          0.4621064195        3.8150878333        1.2384249706
 C         -0.5379097167        4.6061679410        2.0257781325
 C          0.7174832367        4.1189296659        2.6830027594
 H          1.4836809395        4.8385770305        2.9296863967
 H          0.6419537548        3.3033222563        3.3873243335
 H         -1.4673177252        4.1187525909        2.2806897986
 H         -0.6363688495        5.6617831929        1.8237831166
 H          1.0658214280        4.3406261761        0.5090123021
 O          0.8180988891       -0.1376741568        1.8851445573
