  62
        -98.93439337
 C          2.3152868723        0.1844167537        0.1807372134
 C          3.4513229420        0.3925041145        0.9938382115
 C          4.7231689561       -0.1942721635        0.5288797097
 C          4.7286977914       -0.8936804853       -0.6215461865
 C          5.8983965936       -1.5459807546       -1.3098753865
 C          6.8048363394       -0.5329006475       -2.0270533947
 C          7.1270746309        0.7230731000       -1.2218786184
 H          7.6856051159        1.4004641874       -1.8732700881
 H          6.1958641792        1.2260285979       -0.9548862276
 C          7.9600288284        0.4932832013        0.0369729931
 H          8.9024756979        0.0151551369       -0.2390789963
 H          8.1958971715        1.4762230846        0.4527761366
 C          7.2957732605       -0.3385554511        1.1363546879
 H          7.8847455902       -0.2022388054        2.0480436668
 H          7.3305036302       -1.3992701362        0.9029265335
 C          5.8681319455        0.0786539113        1.4747674840
 H          5.5825034069       -0.3918651723        2.4234422160
 H          5.8459421133        1.1564561541        1.6724973600
 H          7.7314768118       -1.0372259770       -2.3062496964
 H          6.3008491290       -0.2196757152       -2.9446568842
 H          6.4669843415       -2.1388164658       -0.5996750697
 H          5.4817190596       -2.2275211392       -2.0546716506
 O          3.6026581282       -1.0738797106       -1.3713024635
 C          2.3778889634       -0.5510559401       -1.0016914182
 O          1.4466688640       -0.8066301682       -1.7889955010
 O          3.4124942105        1.0443500122        2.0733654201
 C          0.9852168624        0.7742341950        0.6075379072
 C         -0.0547285058       -0.3075545193        0.7641987600
 C          0.2681989125       -1.4600019131        1.4772610936
 C         -0.6623699844       -2.4641490279        1.6575171103
 C         -1.9432413370       -2.3341732619        1.1493244930
 C         -2.2771937420       -1.1878649597        0.4396720153
 C         -1.3348977922       -0.1859010442        0.2490742958
 H         -1.6249271107        0.6902713208       -0.3060379805
 N         -3.5619874037       -1.0272637205       -0.1035880207
 S         -4.2388490599        0.5200499272       -0.0981218715
 O         -3.8012942821        1.2305497602       -1.2730676437
 O         -3.9851643270        1.1645135065        1.1705135175
 C         -5.9704411345        0.1181078422       -0.2487197492
 C         -6.4980872363       -0.1049373478       -1.5065165544
 C         -7.8365763427       -0.4457163106       -1.6204173768
 C         -8.6205235111       -0.5585429087       -0.4817284560
 C         -8.0775069615       -0.3300534652        0.7737391325
 C         -6.7395087338        0.0104991356        0.8949036198
 H         -6.2771298831        0.2073578261        1.8488184282
 H         -8.6902964226       -0.4149611029        1.6566921874
 H         -9.6620027443       -0.8233588637       -0.5736676879
 H         -8.2628626191       -0.6209019172       -2.5949907587
 H         -5.8527171507        0.0032293742       -2.3627651613
 H         -4.2170657470       -1.7263380074        0.2186963867
 H         -2.6730185850       -3.1161403705        1.2947519261
 H         -0.3926404023       -3.3531912347        2.2077846165
 H          1.2649938098       -1.5573916621        1.8861994499
 H          1.1644990904        1.2166458867        1.5997998142
 C          0.5685596412        1.8756628138       -0.3443665384
 C         -0.3093631382        2.9934951969        0.1304121194
 C          1.1364356309        3.2507108896       -0.1674374889
 H          1.3888824550        3.8221226183       -1.0479950854
 H          1.8094650004        3.4047251016        0.6634215382
 H         -1.0577886718        3.3811061980       -0.5451516877
 H         -0.6250225564        2.9767746108        1.1630667456
 H          0.4302864057        1.5171358379       -1.3591191013
