  62
        -98.93802370
 C         -2.6477895180       -1.0203076761       -0.2071636505
 C         -2.3191145573       -0.0088713184       -1.1456529212
 C         -2.9065151464        1.3155925504       -0.8807882796
 C         -3.7473356802        1.4914256659        0.1529781697
 C         -4.4611830907        2.7660022587        0.5152415916
 C         -3.6319084221        3.7287575822        1.3752275083
 C         -2.4913142604        4.4333941861        0.6403766794
 H         -2.8779586399        4.9026968007       -0.2647596837
 H         -2.1312842785        5.2305183039        1.2936990969
 C         -1.3121287701        3.5179623350        0.2827023626
 H         -0.3717784574        4.0083265673        0.5433459773
 H         -1.3625540195        2.6013466722        0.8755394124
 C         -1.2201875552        3.1381659709       -1.1952595656
 H         -1.0174897171        4.0310332503       -1.7918867309
 H         -0.3736512194        2.4555521825       -1.3117022163
 C         -2.4752688306        2.4542590807       -1.7543862647
 H         -2.2328802135        2.0454600254       -2.7386234192
 H         -3.2821471204        3.1795196300       -1.8640442607
 H         -4.3133576032        4.4899777709        1.7620365350
 H         -3.2292122495        3.1767773635        2.2275382474
 H         -4.7830850847        3.2742902425       -0.3940858877
 H         -5.3466792948        2.4725768646        1.0832370259
 O         -4.0796961268        0.4802204426        1.0003180330
 C         -3.5062252558       -0.7722909335        0.8672830987
 O         -3.8533449203       -1.5859632135        1.7482688937
 O         -1.5973923563       -0.1768666977       -2.1612255177
 C         -2.0706827862       -2.4258844094       -0.2431454255
 C         -0.8252167217       -2.5026562466        0.6041504119
 C         -0.6353357556       -3.5557245161        1.4919968253
 C          0.5107393887       -3.6279969906        2.2633340407
 C          1.4915958995       -2.6594905435        2.1548838140
 C          1.3067773730       -1.5955331009        1.2782808387
 C          0.1513081067       -1.5209069331        0.5138656835
 H          0.0232237108       -0.6907229510       -0.1644888376
 N          2.2691432157       -0.5789594071        1.1726701071
 S          2.5334157781        0.1016844189       -0.3542735906
 O          1.5977234926        1.1763573390       -0.5542788953
 O          2.5641306421       -0.9434195356       -1.3514617194
 C          4.1690456110        0.7732513663       -0.1181391167
 C          5.2689752102        0.0305134667       -0.5035044337
 C          6.5367445430        0.5466002654       -0.2849129277
 C          6.6823965738        1.7884545818        0.3149378321
 C          5.5689949711        2.5230418049        0.6951466745
 C          4.2987505951        2.0131379790        0.4783385729
 H          3.4039780440        2.5500359391        0.7473941514
 H          5.6855596348        3.4896261865        1.1580836272
 H          7.6697862806        2.1878866876        0.4843189804
 H          7.4039214484       -0.0202710530       -0.5830333232
 H          5.1064859366       -0.9254326392       -0.9750245007
 H          3.1395968550       -0.8137291238        1.6304411231
 H          2.3892259720       -2.7164146544        2.7517573463
 H          0.6449531155       -4.4495217696        2.9504670221
 H         -1.4015925111       -4.3115426903        1.5837123386
 H         -2.8301463476       -3.0665088017        0.2351201630
 C         -1.8527497945       -2.9661936024       -1.6488975388
 C         -0.5139786976       -3.0366643639       -2.3127492015
 C         -1.1835428504       -4.2941249191       -1.8506699774
 H         -1.5863939676       -4.9673744580       -2.5921565828
 H         -0.7761318535       -4.7847544296       -0.9796027753
 H         -0.4739972178       -2.8234429378       -3.3703714331
 H          0.3506052283       -2.6730794389       -1.7777583254
 H         -2.6940976163       -2.7416185385       -2.2970741399
