  62
        -98.94600545
 C          1.3472827696        1.1738244691       -0.0683013991
 C          2.1550963494        0.5932866587        0.9462734009
 C          2.9047484492       -0.6137536913        0.5775845307
 C          2.7870071093       -1.1015743910       -0.6704356094
 C          3.5339012091       -2.2890415111       -1.2037440896
 C          4.8618238593       -1.8654416612       -1.8472542893
 C          5.7029284393       -0.9336885715       -0.9746078390
 H          5.1793768495        0.0183793785       -0.8610772588
 H          6.6279088595       -0.7277518116       -1.5176262888
 C          6.0391514290       -1.4951919519        0.4140547910
 H          7.0958254891       -1.3114451622        0.6194025011
 H          5.8917871688       -2.5757505419        0.4224721707
 C          5.2460521390       -0.8660186620        1.5610548810
 H          5.3174466392        0.2228852780        1.5013805712
 H          5.7093083688       -1.1725266623        2.5026017910
 C          3.7627663989       -1.2496405917        1.6345125607
 H          3.3741228989       -0.8905626719        2.5916394007
 H          3.6644036087       -2.3366784017        1.6077957904
 H          4.6435081595       -1.3505777009       -2.7858426592
 H          5.4347413891       -2.7649845012       -2.0797522894
 H          2.9157239891       -2.7770046908       -1.9596968498
 H          3.7200952889       -2.9901263313       -0.3922565697
 O          1.9922954995       -0.5320194807       -1.6101296594
 C          1.2497484597        0.6089819094       -1.3396668092
 O          0.5658664199        0.9887738298       -2.3119795693
 O          2.2467409993        1.0692678385        2.1077642310
 C          0.5600879298        2.4168714892        0.3200661011
 C         -0.8603640403        2.0199691194        0.6410341408
 C         -1.3165431105        1.9924941792        1.9538910507
 C         -2.5945652006        1.5495476194        2.2487945804
 C         -3.4355287206        1.1059764398        1.2438364502
 C         -2.9830532404        1.1221720700       -0.0689812097
 C         -1.7147893002        1.5948555398       -0.3664078594
 H         -1.3671362801        1.5847138800       -1.3883104294
 N         -3.8009506703        0.5916649804       -1.0898991199
 S         -4.2588126607       -1.0019002096       -0.8309824604
 O         -4.3747560706       -1.5999770793       -2.1424303605
 O         -5.4557482908       -1.0234188795       -0.0271311105
 C         -2.9133844410       -1.7345844301        0.0890881197
 C         -3.1391240512       -2.2051616203        1.3665800595
 C         -2.0775307614       -2.7266412707        2.0881898696
 C         -0.8119262814       -2.7634280008        1.5244938697
 C         -0.6020364811       -2.2913508805        0.2382629599
 C         -1.6594878409       -1.7699283502       -0.4887001802
 H         -1.5144385507       -1.3913346800       -1.4889294601
 H          0.3845666890       -2.3151958006       -0.1976011500
 H          0.0189364985       -3.1587683711        2.0870990998
 H         -2.2375785616       -3.0958540708        3.0882647795
 H         -4.1376192813       -2.1503476402        1.7685448394
 H         -3.3844110702        0.6836714205       -2.0063739399
 H         -4.4243695307        0.7308193300        1.4531733000
 H         -2.9347743807        1.5362285893        3.2727620704
 H         -0.6517012005        2.2998521089        2.7476331809
 H          1.0263580098        2.7737921089        1.2477192112
 C          0.6288016902        3.5262674594       -0.7090008487
 C          0.3138940004        4.9283818894       -0.2847638284
 C          1.7241432404        4.5440980492       -0.6155535583
 H          2.1613012906        4.9149898193       -1.5305356782
 H          2.4300650403        4.4471460989        0.1964291118
 H         -0.2206110094        5.5664662896       -0.9715886284
 H          0.0639105603        5.0920505592        0.7524990916
 H          0.3247891703        3.2210662397       -1.7015645788
