  62
        -98.94364077
 C          0.0474411225       -2.0077622492        0.3116967662
 C         -0.9730225180       -1.4886641524        1.1387039700
 C         -2.3116263202       -1.3604197331        0.5361578386
 C         -2.4834926624       -1.6791849066       -0.7603606836
 C         -3.7271864745       -1.6865198943       -1.6244063846
 C         -4.9849814994       -0.9361124665       -1.1951250203
 C         -4.8356999583        0.5828465755       -1.1535709004
 H         -4.6564518877        0.9477521196       -2.1681543588
 H         -5.7812613648        1.0073691844       -0.8076902652
 C         -3.7068489127        1.1021325545       -0.2661317775
 H         -2.7407191990        0.8309639851       -0.7002045363
 H         -3.7538595958        2.1953553835       -0.2704280625
 C         -3.7694054254        0.6343730707        1.1876396186
 H         -4.7716373762        0.8132982900        1.5821139050
 H         -3.0740842468        1.2521190400        1.7600646535
 C         -3.4003923116       -0.8418220812        1.4333475889
 H         -3.0183091228       -0.9296823447        2.4547114447
 H         -4.2763308047       -1.4837051682        1.3581433952
 H         -5.7546341423       -1.1732066222       -1.9348259074
 H         -5.3401884897       -1.3054753701       -0.2376107277
 H         -3.4044737741       -1.3113491946       -2.6010797300
 H         -3.9845612674       -2.7422623104       -1.7677810845
 O         -1.4581584676       -2.1447592425       -1.5304317526
 C         -0.1800012599       -2.3146533051       -1.0286386022
 O          0.6428266442       -2.7497316472       -1.8575881408
 H          1.0993307420        0.3575904882        0.1946808722
 C          2.0116896546       -0.0156479916       -0.2412029709
 C          2.3929611962       -1.3254676393        0.0209786582
 C          3.5778580405       -1.7939442221       -0.5287133527
 C          4.3277833731       -0.9782417368       -1.3596541189
 C          3.9077529523        0.3013347524       -1.6714873171
 C          2.7319109569        0.7869471555       -1.1075341403
 N          2.2767616466        2.0814513298       -1.3872887778
 S          0.6643442355        2.5062157072       -1.2550849085
 O         -0.2297045590        1.4203900340       -1.5826407688
 O          0.5503579164        3.6930061023       -2.0776344275
 C          0.5167854011        2.9779089715        0.4549495125
 C          1.2502948262        4.0670868802        0.8845570115
 C          1.1766308264        4.4421789480        2.2157784388
 C          0.3785736325        3.7228809323        3.0934228862
 C         -0.3543626787        2.6349122126        2.6464250927
 C         -0.2881097579        2.2594194024        1.3139216319
 H         -0.8414554133        1.4128898543        0.9376000129
 H         -0.9673753952        2.0619738461        3.3243638754
 H          0.3261814679        4.0099100981        4.1318180675
 H          1.7435829530        5.2892235205        2.5669259909
 H          1.8545822720        4.5996630249        0.1693438694
 H          2.7466740698        2.5551958778       -2.1435699308
 H          4.4764176028        0.9191859268       -2.3495789911
 H          5.2430548738       -1.3547725053       -1.7910399906
 H          3.9047406123       -2.8007897319       -0.3270085565
 C          1.4560677222       -2.1576316948        0.8617653946
 H          1.4251473036       -1.7370357445        1.8776870387
 C          1.8464233497       -3.6175923529        0.9456737871
 C          2.8515603126       -4.0726278660        1.9603076130
 C          1.4041432211       -4.4199962357        2.1312878589
 H          1.0945789725       -5.4424137081        1.9747740555
 H          0.8385950601       -3.9049483862        2.8938787090
 H          3.5374257843       -4.8608032187        1.6887784644
 H          3.2737060576       -3.3251597302        2.6145722541
 H          1.8345928130       -4.1059751458       -0.0225629355
 O         -0.7811616777       -1.1516428098        2.3389783225
