  62
        -98.94009261
 C         -2.6039368784       -1.1589866673        0.2825646473
 C         -2.5781966588       -0.3231353463       -0.8614525781
 C         -3.4769285206        0.8422595773       -0.8228599789
 C         -4.2408657372        1.0571996227        0.2626093074
 C         -5.1583464197        2.2299273471        0.4502710945
 C         -4.4379452422        3.3932848304        1.1462674825
 C         -3.0842049078        3.7413211846        0.5268083796
 H         -2.6826958249        4.5926662965        1.0809776756
 H         -2.3961843388        2.9062268692        0.6799586406
 C         -3.1390049340        4.0836270182       -0.9687147406
 H         -4.1625084744        4.3288502529       -1.2545014516
 H         -2.5309199902        4.9731373402       -1.1459351928
 C         -2.6041942435        2.9866477078       -1.8914058825
 H         -1.6148892249        2.6695020177       -1.5512136656
 H         -2.4850479343        3.4123705503       -2.8911238851
 C         -3.4880297756        1.7404360056       -2.0277216493
 H         -4.5082893355        2.0375669606       -2.2783990383
 H         -3.0903208959        1.1412391554       -2.8519252597
 H         -5.0888142865        4.2689849865        1.1179169009
 H         -4.2764675160        3.1241335741        2.1928803424
 H         -5.5339701357        2.5492414801       -0.5198709840
 H         -5.9993330717        1.9130034080        1.0694057698
 O         -4.2216043831        0.2456477510        1.3516772999
 C         -3.3915041408       -0.8628021659        1.3973321440
 O         -3.4381953960       -1.4918496756        2.4741907738
 H         -0.1891453194       -0.4494153845        1.3577053539
 C          0.3351442322       -0.9913291075        0.5782168753
 C         -0.3113564822       -2.0434517552       -0.0605554199
 C          0.3725735503       -2.7337378364       -1.0515378176
 C          1.6618924109       -2.3671318977       -1.3972374348
 C          2.2942740414       -1.3103649090       -0.7697753217
 C          1.6211111141       -0.6141442650        0.2259825226
 N          2.2497676695        0.4749565740        0.8573754898
 S          3.7790610468        0.2315248478        1.5078396696
 O          3.9635845732       -1.1394574297        1.9251022379
 O          3.9156302364        1.2390056053        2.5375062190
 C          4.8857946913        0.6171023158        0.1679912366
 C          5.8410663680       -0.3014570603       -0.2207958670
 C          6.6999725160        0.0242805460       -1.2590837635
 C          6.5893601124        1.2561992486       -1.8854889750
 C          5.6259763548        2.1685121597       -1.4810884522
 C          4.7651711143        1.8498220749       -0.4430099092
 H          4.0051479790        2.5306572536       -0.0974218012
 H          5.5424086019        3.1252247844       -1.9710670803
 H          7.2576046079        1.5071868037       -2.6940551210
 H          7.4495672627       -0.6833541350       -1.5749115403
 H          5.8850345877       -1.2491166046        0.2918010183
 H          1.6587582355        0.9551062896        1.5205419406
 H          3.2946726646       -1.0173739729       -1.0435119724
 H          2.1791223004       -2.9086977830       -2.1745159925
 H         -0.1101396780       -3.5456123077       -1.5697250907
 C         -1.7116042432       -2.3835605688        0.3908028381
 H         -1.6647482035       -2.6047391890        1.4708550079
 C         -2.2772899751       -3.6282852213       -0.2771728344
 C         -3.7550959286       -3.8073403618       -0.4537086531
 C         -2.8775163299       -3.5996152723       -1.6494400775
 H         -2.6990942301       -4.4404700528       -2.3036930765
 H         -2.9129830395       -2.6494353760       -2.1575845206
 H         -4.1750507392       -4.7874560605       -0.2838484527
 H         -4.3992387009       -2.9977115198       -0.1418727305
 H         -1.7185410639       -4.5192400804       -0.0070507690
 O         -1.8499844787       -0.5253853570       -1.8657756471
