  62
        -98.94367716
 C         -1.5693690127       -1.6981334629       -0.4076205354
 C         -1.5876422652       -0.5002985526       -1.1658199017
 C         -2.8195876836        0.2981624682       -1.0681004441
 C         -3.8381667206       -0.1188250145       -0.2964122706
 C         -5.1767595934        0.5530118574       -0.1468342204
 C         -5.2069285452        1.6867355562        0.8862625090
 C         -4.4864888686        2.9669328665        0.4625924683
 H         -4.8445743585        3.2777643461       -0.5195237969
 H         -4.7676383999        3.7459075834        1.1741166779
 C         -2.9567203399        2.8484071211        0.4410685414
 H         -2.5100385398        3.7172210788        0.9302780868
 H         -2.6432217390        1.9753745902        1.0185452771
 C         -2.3362563346        2.7552611807       -0.9523494521
 H         -1.2597392394        2.6230665340       -0.8175049106
 H         -2.4989764192        3.6920472607       -1.4911561474
 C         -2.8677155797        1.5995970274       -1.8101887664
 H         -2.2278280492        1.5048532911       -2.6911634173
 H         -3.8853996681        1.8138625355       -2.1380216854
 H         -4.7760221117        1.3207456442        1.8211173324
 H         -6.2556179777        1.9286477590        1.0746192872
 H         -5.5016270545        0.9354524019       -1.1151503481
 H         -5.8761780709       -0.2224350994        0.1735898676
 O         -3.7751793020       -1.2647453541        0.4339672806
 C         -2.6431827161       -2.0614610930        0.4093227359
 O         -2.7175389252       -3.0731193324        1.1374887662
 O         -0.6518263121       -0.1096226337       -1.9083030569
 C         -0.3994026784       -2.6679595259       -0.3958971488
 C          0.6020874969       -2.3252423018        0.6792285558
 C          1.2048706303       -3.3297604031        1.4285617769
 C          2.1349633722       -3.0161958876        2.4034031554
 C          2.4755695554       -1.6996537843        2.6527955689
 C          1.8643327889       -0.6842362539        1.9226815016
 C          0.9419890807       -1.0049082838        0.9362738662
 H          0.4668602840       -0.2124998703        0.3830894406
 N          2.1577467457        0.6512526351        2.2049050847
 S          1.9115887594        1.9352712386        1.1713911575
 O          2.5036597232        3.0507026618        1.8809305571
 O          0.5158388448        2.0615769329        0.8457992957
 C          2.8985151840        1.5916081825       -0.2728423445
 C          4.2654413252        1.7591650446       -0.1463900475
 C          5.0796842188        1.5060320206       -1.2366183031
 C          4.5148452180        1.0951664710       -2.4353310346
 C          3.1434251411        0.9357015678       -2.5456858731
 C          2.3204404436        1.1805555544       -1.4555561544
 H          1.2522585364        1.0437312683       -1.5243991288
 H          2.6978783438        0.6185585481       -3.4748208706
 H          5.1461547541        0.9004726253       -3.2879545577
 H          6.1470291499        1.6322066680       -1.1517440487
 H          4.6602704368        2.1035579798        0.7956051252
 H          2.9067509875        0.8114596755        2.8596957298
 H          3.1938916671       -1.4528833684        3.4194156386
 H          2.5969353856       -3.8042008392        2.9784566069
 H          0.9247529925       -4.3587640281        1.2573810531
 H         -0.8384958286       -3.6431939314       -0.1288728751
 C          0.2507478699       -2.8258521259       -1.7651067350
 C          1.6090278495       -2.2935867642       -2.0963508224
 C          1.4015611226       -3.7695876032       -1.9548480927
 H          1.4206843073       -4.3835018744       -2.8425418437
 H          1.8067977449       -4.2486825739       -1.0771042094
 H          1.7558755564       -1.8801971448       -3.0816406648
 H          2.1543281701       -1.7745386822       -1.3231455456
 H         -0.4848866842       -2.7936990598       -2.5621434757
