  62
        -98.93687418
 C          2.1225761147        1.3119877556       -0.0172808064
 C          2.9247415690        0.6445871640        0.9343252452
 C          3.7312336837       -0.4891639830        0.4454417336
 C          3.6237498486       -0.8564333876       -0.8443453056
 C          4.3380015247       -1.9666596527       -1.5733011204
 C          4.4473122411       -3.3151432514       -0.8448138238
 C          5.8679372131       -3.6438314084       -0.3819203633
 H          5.9598448393       -4.7275797857       -0.2816834037
 H          6.5671560980       -3.3280869154       -1.1588650083
 C          6.2783822791       -3.0203142945        0.9510055805
 H          5.7475546873       -3.5222925993        1.7628847522
 H          7.3443748801       -3.2136756177        1.0914195908
 C          6.0330491358       -1.5150749594        1.0724048862
 H          6.7025284240       -1.1290644433        1.8439112934
 H          6.2929596408       -1.0094592877        0.1431947897
 C          4.5960158480       -1.1569856423        1.4799957668
 H          4.0798916434       -2.0481662583        1.8494455039
 H          4.6159139348       -0.4535695715        2.3183486861
 H          3.7573493224       -3.3392202135       -0.0024717745
 H          4.1308925074       -4.0944218513       -1.5402539063
 H          3.7832144128       -2.0932971621       -2.5058854475
 H          5.3346254364       -1.6133281393       -1.8497291823
 O          2.8096148979       -0.2015055053       -1.7218754003
 C          2.0453509332        0.8892848955       -1.3436866059
 O          1.3579939315        1.3791702780       -2.2587654944
 O          2.9668717116        0.9790260120        2.1504559768
 C          1.2767647505        2.4929334465        0.4246004684
 C         -0.1835462662        2.1752121855        0.2149144514
 C         -1.0675746604        3.0129961673       -0.4508322288
 C         -2.3881621536        2.6370715850       -0.6294617949
 C         -2.8567660114        1.4301515227       -0.1448611284
 C         -1.9826012807        0.5874640723        0.5298403316
 C         -0.6624927524        0.9675010337        0.7090118170
 H          0.0194725309        0.3066381436        1.2311516226
 N         -2.4516409502       -0.6387338518        1.0392140600
 S         -3.2167646800       -1.6791303363       -0.0379141295
 O         -3.0513769435       -2.9986457561        0.5335248627
 O         -2.7348626915       -1.4987899615       -1.3879961447
 C         -4.9313099364       -1.2117583979        0.0715464645
 C         -5.6212979696       -0.8555354017       -1.0705207934
 C         -6.9572263594       -0.5009369290       -0.9625665611
 C         -7.5754011408       -0.5094267570        0.2784455630
 C         -6.8685963003       -0.8722180266        1.4154773810
 C         -5.5335188644       -1.2292345863        1.3145179735
 H         -4.9493626754       -1.5208001322        2.1712423411
 H         -7.3528286546       -0.8776014945        2.3786501694
 H         -8.6143337863       -0.2315426098        0.3598799151
 H         -7.5078813252       -0.2189498501       -1.8455824711
 H         -5.0957313305       -0.8568970537       -2.0123024579
 H         -1.7530382435       -1.1433224105        1.5666703120
 H         -3.8823663242        1.1321617436       -0.2890988276
 H         -3.0621887530        3.2943304811       -1.1572207366
 H         -0.7207118643        3.9548652795       -0.8423495160
 H          1.4537965522        2.5910774467        1.5059976230
 C          1.7324889592        3.7624499600       -0.2620821585
 C          1.5234985979        5.0921200678        0.3970892860
 C          2.9011927547        4.5108005869        0.3030974898
 H          3.6067335535        4.9572190596       -0.3813723538
 H          3.3547299039        4.1165931831        1.2008260718
 H          1.2846097868        5.9428084505       -0.2229527743
 H          1.0422370039        5.1001787177        1.3632000758
 H          1.6508708025        3.7037152625       -1.3415847128
