  62
        -98.93336620
 C         -2.5158444804       -1.0125167889        0.3399597571
 C         -2.6513262193        0.1520925195        1.1292408700
 C         -3.5339922327        1.2160585592        0.6133573113
 C         -4.1282414312        1.0376605398       -0.5813992670
 C         -5.0386943158        1.9809382028       -1.3223771984
 C         -4.2818175837        3.1449767276       -1.9809077611
 C         -3.2256288840        3.8040357082       -1.0980937758
 H         -2.4960073103        3.0521045757       -0.7918009768
 H         -2.6955681418        4.5398210210       -1.7085691124
 C         -3.7661864080        4.5226857450        0.1359609996
 H         -2.9221908137        5.0287075755        0.6115604285
 H         -4.4775137769        5.2893099370       -0.1789955363
 C         -4.4393609823        3.6361100750        1.1862691905
 H         -4.5359814501        4.2303479669        2.0996316362
 H         -5.4485094290        3.3666982024        0.8865694044
 C         -3.6519623702        2.3849129195        1.5621906330
 H         -4.0757099019        1.9706034815        2.4850258598
 H         -2.6260106731        2.6705318700        1.8210994394
 H         -3.7787033205        2.7598426801       -2.8712770162
 H         -5.0102636838        3.8917231730       -2.3014649652
 H         -5.5235890574        1.3946784974       -2.1060859643
 H         -5.8143569661        2.3501163901       -0.6579942228
 O         -3.9304323594       -0.0842804372       -1.3307517914
 C         -3.1317671076       -1.1299474478       -0.9057223962
 O         -3.0610861979       -2.0791248063       -1.7083451129
 O         -2.0556984099        0.3066591194        2.2312257172
 C         -1.6398311911       -2.1414458800        0.8561423832
 C         -0.3951718303       -2.2263628186        0.0069266842
 C         -0.1275647576       -3.2729962322       -0.8642161614
 C          1.0261132221       -3.2652352834       -1.6300525848
 C          1.9331061638       -2.2259022119       -1.5411070408
 C          1.6795743104       -1.1773447327       -0.6649907222
 C          0.5237271817       -1.1870474050        0.1011293466
 H          0.3189855497       -0.3710609998        0.7832525342
 N          2.5934110388       -0.1090334264       -0.5706811771
 S          4.2295667330       -0.5240608590       -0.4637335298
 O          4.7198136118       -0.7906336570       -1.7926827085
 O          4.4081955909       -1.5876230176        0.4995403339
 C          4.9391805524        0.9920655330        0.1462019970
 C          5.1300046289        1.1478511641        1.5061061009
 C          5.6689393750        2.3353955890        1.9754316781
 C          6.0036499527        3.3419345624        1.0820402686
 C          5.8057268463        3.1707687677       -0.2800808337
 C          5.2681938595        1.9855538870       -0.7562303335
 H          5.1063014352        1.8037111208       -1.8058290422
 H          6.0697646359        3.9547759879       -0.9713242963
 H          6.4244816740        4.2642974834        1.4499986515
 H          5.8265315075        2.4700622087        3.0334685091
 H          4.8657086817        0.3348642124        2.1634834162
 H          2.3399017008        0.5365191214        0.1653337677
 H          2.8369408199       -2.2157985045       -2.1286857773
 H          1.2218176952       -4.0825055290       -2.3080793553
 H         -0.8256530783       -4.0885666054       -0.9533673157
 H         -1.3353309573       -1.8310671801        1.8659714752
 C         -2.4078121399       -3.4408754205        0.9596236833
 C         -1.8834080581       -4.5395936278        1.8333956354
 C         -3.1048090692       -3.7744232404        2.2432164806
 H         -4.0638715749       -4.2677971205        2.1947642862
 H         -3.0179115691       -3.0688002020        3.0565820982
 H         -2.0026682719       -5.5610448248        1.5059711179
 H         -0.9640642802       -4.3540986636        2.3682152264
 H         -2.9072292075       -3.7149173950        0.0382168195
