  62
        -98.93884563
 C         -1.8805691798       -0.1742682303       -0.0109156496
 C         -2.8618899098       -1.1154172012        0.3754571781
 C         -4.1987780897       -0.5797969220        0.6839710595
 C         -4.4057718497        0.7456943683        0.5954238729
 C         -5.6962548797        1.4850557178        0.8174846448
 C         -6.4464764198        1.6819152311       -0.5107331647
 C         -7.3682778898        0.5291667521       -0.9070148275
 H         -8.2362013098        0.5201472105       -0.2442520574
 H         -7.7300322499        0.7352874447       -1.9170116369
 C         -6.7248392999       -0.8598883779       -0.8890299310
 H         -5.7275323599       -0.8090247469       -1.3297846809
 H         -7.3250999999       -1.5147307763       -1.5237238426
 C         -6.6449482598       -1.4695929815        0.5184135075
 H         -7.0671493398       -2.4764749014        0.5000230350
 H         -7.2688141197       -0.8855555531        1.1948163890
 C         -5.2289210498       -1.5942354630        1.1002951171
 H         -5.2920358297       -1.5988193757        2.1936111871
 H         -4.7997753598       -2.5581495523        0.8092543746
 H         -7.0505999697        2.5888265109       -0.4408492223
 H         -5.7021470698        1.8453980130       -1.2944177343
 H         -6.3152804996        0.9701468360        1.5462041836
 H         -5.4277985796        2.4666344968        1.2135466772
 O         -3.4289010397        1.6194690292        0.2250676250
 C         -2.1497524597        1.1916560199       -0.0884416562
 O         -1.3656224097        2.1039704807       -0.4108687240
 O         -2.6313240298       -2.3522382214        0.4598104550
 C         -0.4849392098       -0.6674151995       -0.3488982410
 C          0.5256247503       -0.0076731818        0.5555415106
 C          0.3262891104       -0.0707332252        1.9333861805
 C          1.2056249004        0.5401255126        2.8044909619
 C          2.3139394204        1.2152187737        2.3221785035
 C          2.5284477403        1.2765939572        0.9516452737
 C          1.6402608402        0.6617918294        0.0773979222
 H          1.8260066602        0.7426043320       -0.9799798176
 N          3.6402894003        1.9618237484        0.4346420753
 S          4.5748516902        1.2537794114       -0.7571441465
 O          5.8179625602        1.9925634012       -0.7298600148
 O          3.8691507801        1.2420345545       -2.0122522065
 C          4.8386378602       -0.4093940101       -0.1707799707
 C          5.7698642503       -0.6074675426        0.8303213887
 C          5.9353113203       -1.8806416040        1.3499590155
 C          5.1637138502       -2.9276325127        0.8684402330
 C          4.2349465601       -2.7124301202       -0.1376493864
 C          4.0676016401       -1.4413477089       -0.6646330332
 H          3.3586499701       -1.2351904369       -1.4491134527
 H          3.6374225901       -3.5281749492       -0.5125504484
 H          5.2881842602       -3.9179368637        1.2773380705
 H          6.6607890803       -2.0529421259        2.1285607950
 H          6.3563867603        0.2307497165        1.1700647008
 H          4.2240554204        2.3939865266        1.1359105163
 H          2.9992423005        1.7006954120        3.0002482647
 H          1.0307364605        0.4900457299        3.8685946518
 H         -0.5402879096       -0.5971476261        2.3097437792
 H         -0.4968090898       -1.7445581601       -0.1251938437
 C         -0.2024011499       -0.4811778358       -1.8241707405
 C          0.7112312000       -1.4269291041       -2.5424357930
 C         -0.7640867400       -1.4675370734       -2.8023677229
 H         -1.1351357201       -1.1014292110       -3.7479250020
 H         -1.3304673800       -2.2954157043       -2.4012571750
 H          1.3617256999       -1.0327259222       -3.3095180420
 H          1.1369836500       -2.2370254155       -1.9695727750
 H         -0.1956747399        0.5617399949       -2.1222039079
