  62
        -98.93631703
 C          1.7598228062        0.2071069657       -0.3194895015
 C          2.9064854072        0.4790385136       -1.1013810892
 C          4.1945335279        0.4538923431       -0.3924682017
 C          4.2093750508        0.1957909907        0.9282320492
 C          5.4434959611        0.0634114873        1.7749092245
 C          6.1011626590       -1.3111355091        1.5378525705
 C          7.4824636482       -1.2454865743        0.8859277230
 H          8.2130817306       -0.9284420264        1.6330851048
 H          7.7464905227       -2.2590315478        0.5766125033
 C          7.6085539330       -0.3080966886       -0.3189825174
 H          7.7171922512        0.7211875675        0.0262087210
 H          8.5408409010       -0.5657467759       -0.8261437351
 C          6.4623799432       -0.3655865878       -1.3370965090
 H          5.9541940938       -1.3289426971       -1.2908730787
 H          6.8921407176       -0.2808743972       -2.3373480259
 C          5.4253653204        0.7647043845       -1.1986662222
 H          5.9107183831        1.6580093913       -0.7954286006
 H          5.0496377671        1.0175362247       -2.1947076532
 H          6.1972599573       -1.8371870976        2.4888144966
 H          5.4316062036       -1.9078950817        0.9151018954
 H          6.1387913263        0.8661184410        1.5393558787
 H          5.1349666511        0.1626054496        2.8157458716
 O          3.0838908894       -0.0539753956        1.6466687630
 C          1.8322445475       -0.0541191041        1.0485467369
 O          0.8899031071       -0.2939916613        1.8254935728
 O          2.8540349011        0.7394665645       -2.3344997211
 C          0.3959429835        0.2183129289       -0.9839947427
 C         -0.5004848005        1.2458030973       -0.3380813717
 C          0.0117610235        2.5094544478       -0.0532593135
 C         -0.7759750947        3.4744231182        0.5421005648
 C         -2.0987532144        3.2078553389        0.8498469862
 C         -2.6253580178        1.9571262502        0.5557258810
 C         -1.8268817716        0.9848705440       -0.0324542792
 H         -2.2558957789        0.0217226849       -0.2521483894
 N         -3.9578975449        1.6503367917        0.8655830615
 S         -4.8814597310        0.7491226569       -0.1972218607
 O         -4.5212399358        1.0101550528       -1.5712541930
 O         -6.2503748054        1.0507632779        0.1656383974
 C         -4.5444273013       -0.9496870184        0.2150446513
 C         -4.3598007907       -1.3006283623        1.5375288940
 C         -4.1430050882       -2.6327785656        1.8514924835
 C         -4.1239603775       -3.5876476690        0.8461823840
 C         -4.3181029889       -3.2200555049       -0.4761819702
 C         -4.5306235823       -1.8884264319       -0.7975748044
 H         -4.6739148229       -1.5566531472       -1.8137087776
 H         -4.3030671977       -3.9639179870       -1.2571118698
 H         -3.9551361775       -4.6236704630        1.0943996906
 H         -3.9876667484       -2.9215195588        2.8785937710
 H         -4.3762754197       -0.5345119100        2.2944186199
 H         -4.4870231353        2.4059100444        1.2755377770
 H         -2.7168462986        3.9608812649        1.3149199178
 H         -0.3601228522        4.4459022440        0.7639377144
 H          1.0431644116        2.7227045604       -0.2995668447
 H          0.5781090175        0.5333582357       -2.0228543399
 C         -0.1929608605       -1.1769664082       -0.9953557650
 C         -1.1226575967       -1.6002542270       -2.0918165271
 C          0.2705859504       -2.1487592075       -2.0374323037
 H          0.4077262679       -3.1815325934       -1.7548163106
 H          0.9910424634       -1.7935853745       -2.7598222302
 H         -1.9417367111       -2.2578957339       -1.8430930632
 H         -1.3580846352       -0.8749694161       -2.8563753542
 H         -0.3713938749       -1.5595693188        0.0035771003
