  62
        -98.94848247
 C          2.3601741042        0.6069697438        0.1712340681
 C          1.5443323377        0.0042827671       -0.8157851036
 C          1.6744718336       -1.4527423155       -0.9613496341
 C          2.5188597997       -2.1243786574       -0.1592919499
 C          2.7510422530       -3.6067759148       -0.1994502890
 C          1.8272242576       -4.3564762941        0.7688775162
 C          0.3523924998       -3.9727292024        0.6456640792
 H         -0.2066952248       -4.6092949731        1.3359465148
 H          0.2117619228       -2.9435285192        0.9855633367
 C         -0.2287910516       -4.1187455351       -0.7675732903
 H         -1.2110588227       -4.5899606882       -0.6907493024
 H          0.4031032071       -4.7773158214       -1.3654942072
 C         -0.4293370384       -2.7904141712       -1.4994231109
 H         -1.0849844798       -2.9659276323       -2.3568405377
 H         -0.9386699493       -2.0927275598       -0.8300778174
 C          0.8455671153       -2.1171885243       -2.0244775794
 H          1.4426792362       -2.8426523412       -2.5817139660
 H          0.5432862800       -1.3206325869       -2.7105959755
 H          2.1498663951       -4.1457760929        1.7913004616
 H          1.9413044354       -5.4279355054        0.5908038925
 H          2.5932814635       -3.9633922747       -1.2157147959
 H          3.7878526130       -3.7964271594        0.0853274910
 O          3.2560920051       -1.5194721517        0.8079342636
 C          3.1733135765       -0.1524759573        1.0147033578
 O          3.8679906742        0.2647031708        1.9644568967
 H          0.3259778446        1.0425217390        1.8315728908
 C         -0.0234312016        1.8736362430        1.2353795414
 C          0.8734456577        2.5672799553        0.4315064527
 C          0.3988799174        3.6328739324       -0.3221370238
 C         -0.9419621963        3.9763769907       -0.2838692418
 C         -1.8389568068        3.2510143254        0.4782075410
 C         -1.3727685532        2.1819056112        1.2349603768
 N         -2.2465155860        1.3815499335        2.0020856838
 S         -2.3964012945       -0.2251287189        1.5437963566
 O         -3.3251110586       -0.8024443433        2.4925532689
 O         -1.0958716144       -0.8378515212        1.4725819325
 C         -3.1707156791       -0.1653834883       -0.0634422464
 C         -2.4335865381        0.2319960051       -1.1613640602
 C         -3.0703955930        0.3208238445       -2.3905200677
 C         -4.4182442103        0.0179393388       -2.5013388924
 C         -5.1436378395       -0.3765377486       -1.3869618044
 C         -4.5167538298       -0.4651989166       -0.1550762366
 H         -5.0369931466       -0.7695266514        0.7388448746
 H         -6.1918880521       -0.6132657925       -1.4735212082
 H         -4.9049334304        0.0890110515       -3.4613459858
 H         -2.4989425711        0.6281582555       -3.2516119727
 H         -1.3823303266        0.4571153248       -1.0631837306
 H         -3.1708746548        1.7776050695        2.1084413206
 H         -2.8896186742        3.4999714539        0.4839341395
 H         -1.2964593555        4.8069706988       -0.8749701659
 H          1.0724781486        4.1823858530       -0.9587680729
 C          2.3096505218        2.1027875505        0.4378794567
 H          2.6951169091        2.2209447183        1.4648232778
 C          3.2166275244        2.9260116637       -0.4656191820
 C          4.4274526595        2.3191993467       -1.1078504541
 C          3.2558120949        2.7219918621       -1.9492872767
 H          3.3579739396        3.5896950862       -2.5843911523
 H          2.6271954586        1.9483004959       -2.3601445124
 H          5.3290931871        2.9111450386       -1.1585712153
 H          4.6068505761        1.2660656485       -0.9453123743
 H          3.3287236636        3.9449569571       -0.1081309001
 O          0.7542921208        0.6445417219       -1.5578811731
