  62
        -98.94548179
 C         -2.6555145709       -1.0345168148        0.2623935670
 C         -2.5067550903       -0.2762012492       -0.9246258206
 C         -3.0834424011        1.0758185174       -0.8958770904
 C         -3.7142285364        1.5017666445        0.2135001513
 C         -4.2939788161        2.8736621022        0.3985427900
 C         -3.2686390506        3.8276117623        1.0274120835
 C         -1.9014200180        3.8061038992        0.3425515137
 H         -1.2686159052        4.5375610916        0.8506490515
 H         -1.4349198654        2.8287053146        0.4923874092
 C         -1.9379064187        4.1185951992       -1.1598638734
 H         -2.8776668471        4.6112869065       -1.4131205453
 H         -1.1303037509        4.8167968652       -1.3894859193
 C         -1.7419011203        2.9012755603       -2.0658819151
 H         -0.8466077870        2.3538996893       -1.7551567113
 H         -1.5642160308        3.2613818217       -3.0829317780
 C         -2.9203447368        1.9203792802       -2.1275140863
 H         -3.8404547109        2.4651277109       -2.3489400798
 H         -2.7262374283        1.2213110326       -2.9461353897
 H         -3.6741504689        4.8403942897        0.9971863918
 H         -3.1304066020        3.5477600814        2.0744342389
 H         -4.6195041593        3.2578137213       -0.5659349499
 H         -5.1578871349        2.7961344320        1.0607372151
 O         -3.8501686472        0.7381564842        1.3284269277
 C         -3.3017877587       -0.5334957753        1.3908812684
 O         -3.4511418346       -1.1053164683        2.4907121674
 H         -0.4044171744       -0.7208316071        1.5586056609
 C          0.1409005608       -1.3348633172        0.8503005464
 C         -0.5479266833       -2.3017881533        0.1273845410
 C          0.1629112910       -3.0832409283       -0.7726923187
 C          1.5201365146       -2.8792017676       -0.9571031679
 C          2.1961138682       -1.9023558690       -0.2496235696
 C          1.4966344744       -1.1242015769        0.6638898374
 N          2.1777704259       -0.1240283129        1.3905426159
 S          2.8476307968        1.1177262476        0.4691931993
 O          2.9368142878        2.2498380077        1.3666432826
 O          2.1115482270        1.3254920460       -0.7562508166
 C          4.4881475886        0.5260225977        0.1141798423
 C          5.3211257132        0.2487999568        1.1806418102
 C          6.6009704777       -0.2170164172        0.9258414967
 C          7.0239291628       -0.3943941137       -0.3833185493
 C          6.1764414112       -0.1081036491       -1.4427044441
 C          4.8940290888        0.3570826639       -1.1947865948
 H          4.1967843466        0.5859676621       -1.9849956920
 H          6.5071086570       -0.2463821329       -2.4595426045
 H          8.0202410169       -0.7580777413       -0.5791707753
 H          7.2629369233       -0.4407540612        1.7467727756
 H          4.9526626190        0.4046446145        2.1807797446
 H          1.6135192548        0.2779428211        2.1266183671
 H          3.2505258547       -1.7349361766       -0.3980137622
 H          2.0580276194       -3.4874251854       -1.6681180158
 H         -0.3482495490       -3.8417500048       -1.3422210336
 C         -2.0362250379       -2.4186910032        0.3541263522
 H         -2.2012254938       -2.7595173670        1.3867850658
 C         -2.7268893174       -3.3760454213       -0.5932061494
 C         -2.7645222150       -4.8422153771       -0.2864591182
 C         -4.0096532846       -4.0180790614       -0.1611252126
 H         -4.7929341004       -4.1477908308       -0.8926721078
 H         -4.3727658830       -3.7816374766        0.8287427775
 H         -2.2851595698       -5.1752710555        0.6215823453
 H         -2.6964404778       -5.5425073251       -1.1050858976
 H         -2.6456903891       -3.0675585878       -1.6288941264
 O         -1.9231907605       -0.7034826914       -1.9538989417
