  62
        -98.93460528
 C          2.6003024800        0.1091349685        0.5223872495
 C          2.1934790295       -0.4711029614       -0.7038155604
 C          1.8664879586       -1.9088665612       -0.6752486702
 C          1.9477586383       -2.5849638711        0.4822870899
 C          1.7185060974       -4.0528431909        0.7494844701
 C          0.5575087369       -4.7461675003        0.0284681503
 C         -0.7033332326       -3.8880591895       -0.1495787197
 H         -1.5673280129       -4.4464336189        0.2164915504
 H         -0.6326848720       -2.9738071095        0.4438613402
 C         -0.9663102125       -3.5084000295       -1.6079974497
 H         -0.7820261031       -4.3774826697       -2.2441916596
 H         -2.0201035323       -3.2394862888       -1.7112626296
 C         -0.1427872018       -2.3257530101       -2.1125651599
 H         -0.4349487212       -1.4248454498       -1.5654411400
 H         -0.3848137018       -2.1631531700       -3.1659722599
 C          1.3813545181       -2.4856441410       -1.9744716201
 H          1.8571370584       -1.8938050014       -2.7612231202
 H          1.6822843274       -3.5241629812       -2.0922079500
 H          0.3137287764       -5.6339939301        0.6151372804
 H          0.8915796966       -5.0968563806       -0.9471252197
 H          2.6479819570       -4.5843401515        0.5213154400
 H          1.5680066875       -4.1214372207        1.8300611001
 O          2.3287548388       -1.9817992712        1.6466772098
 C          2.6216462996       -0.6317162614        1.7031335596
 O          2.8895501000       -0.2143353014        2.8506157995
 O          2.1159281098        0.1654729886       -1.7860043904
 C          2.8613918809        1.6016347083        0.6491209794
 C          1.7518715613        2.3512945190       -0.0498679506
 C          1.9479016719        3.3997741987       -0.9366069307
 C          0.8620306522        4.0088717794       -1.5447265907
 C         -0.4265321880        3.5702957902       -1.3090554405
 C         -0.6318128886        2.5111164404       -0.4283597204
 C          0.4494041411        1.9488168298        0.2240016796
 H          0.2830143107        1.1501763900        0.9334856297
 N         -1.9205520189        1.9843885713       -0.2414227502
 S         -2.2497413896        0.7414865716        0.8317679299
 O         -2.1846953992        1.2177203317        2.1993767999
 O         -1.4363412603       -0.4019182890        0.5107232900
 C         -3.9427235198        0.4173374326        0.3809232201
 C         -4.1809614004       -0.3887992674       -0.7158379897
 C         -5.4902000706       -0.6272508366       -1.1015297096
 C         -6.5341985702       -0.0563406659       -0.3885086896
 C         -6.2800828196        0.7492032141        0.7111968803
 C         -4.9721776694        0.9912320433        1.1019020902
 H         -4.7270146989        1.6016118833        1.9561655701
 H         -7.0940259693        1.1886541047        1.2649061804
 H         -7.5525441804       -0.2430047553       -0.6906795094
 H         -5.6909290411       -1.2553494366       -1.9544022995
 H         -3.3357394008       -0.8138631780       -1.2327937298
 H         -2.6689076885        2.6574326217       -0.3115020802
 H         -1.2667830178        4.0259023307       -1.8092689005
 H          1.0262366027        4.8277491592       -2.2288280308
 H          2.9472259521        3.7292592781       -1.1692149209
 H          2.7744281712        1.8097614785        1.7299137993
 C          4.2562684412        2.0436631674        0.2325281792
 C          5.3958335606        1.0706267467        0.1898249492
 C          4.8565187008        1.6489080869       -1.0820380108
 H          5.4591252712        2.3748018865       -1.6082118310
 H          4.2641073203        1.0180607672       -1.7250060407
 H          6.3627990108        1.3999909061        0.5399633890
 H          5.1780628399        0.0364931669        0.4160911093
 H          4.4934464418        3.0379013173        0.5988730790
