  62
        -98.93563980
 C          2.5578433076        1.3182503926        0.1869929490
 C          2.6293578180        0.2794477268       -0.7709759211
 C          3.8488706448       -0.5442054999       -0.7372059366
 C          4.8047799029       -0.2661845693        0.1679236338
 C          6.0626449667       -1.0599415404        0.3799631977
 C          5.7461339359       -2.3486708237        1.1656401582
 C          5.9737510302       -3.6388489560        0.3777228953
 H          7.0465238726       -3.8345690129        0.3195652799
 H          5.5205485488       -4.4534538118        0.9466026892
 C          5.4162375958       -3.6563122238       -1.0488123820
 H          5.4153342053       -4.6979683853       -1.3768299890
 H          6.0951580362       -3.1215842316       -1.7147516373
 C          4.0038708696       -3.0835436599       -1.2246055814
 H          3.4462650591       -3.1377381910       -0.2893824408
 H          3.4727156877       -3.7063331245       -1.9472275185
 C          3.9594189768       -1.6404294822       -1.7606373870
 H          4.8307673667       -1.4600849781       -2.3963852371
 H          3.0678240086       -1.5279646031       -2.3846890582
 H          6.3600901627       -2.3855181727        2.0668212704
 H          4.7063283771       -2.3014059997        1.4959841917
 H          6.5135811175       -1.2979558350       -0.5808169375
 H          6.7522528757       -0.4311239712        0.9434344990
 O          4.6996849365        0.7461631203        1.0685657173
 C          3.5786245290        1.5579649467        1.1058285257
 O          3.6082868225        2.4399791126        1.9880061703
 H         -1.0325765556        2.0781061979       -1.1840351198
 C         -1.0187104398        1.4327689119       -0.3196264229
 C          0.1019535283        1.3875917469        0.4928536322
 C          0.0820733957        0.5498812466        1.6055285305
 C         -1.0225802949       -0.2307520750        1.8834931457
 C         -2.1332789114       -0.1970156328        1.0576180380
 C         -2.1293618974        0.6416325843       -0.0473158364
 N         -3.2443772287        0.6723457754       -0.8979354974
 S         -4.7847026301        0.7456866214       -0.2446429016
 O         -5.6081886381        1.3117431739       -1.2906778632
 O         -4.7909535109        1.4399385572        1.0221406679
 C         -5.2390994181       -0.9599316914       -0.0090869132
 C         -5.7072244199       -1.3821758229        1.2197296464
 C         -6.0684172952       -2.7109905055        1.3792898921
 C         -5.9568089313       -3.5891657915        0.3123466359
 C         -5.4877401808       -3.1486238472       -0.9163361060
 C         -5.1264892885       -1.8212950156       -1.0827873992
 H         -4.7595257620       -1.4411105991       -2.0215130976
 H         -5.4015514257       -3.8346555648       -1.7436021900
 H         -6.2368335015       -4.6230467566        0.4389286151
 H         -6.4338189458       -3.0551704067        2.3335011086
 H         -5.7713005110       -0.6654487789        2.0230594178
 H         -3.1458147418        1.2889983500       -1.6907679636
 H         -2.9962258481       -0.8079380263        1.2658956246
 H         -1.0200086119       -0.8762446691        2.7488834079
 H          0.9514699662        0.5206949718        2.2490231852
 C          1.3361840449        2.2186662112        0.2384814309
 H          1.4825768241        2.8793479619        1.1054095426
 C          1.2612178423        3.0690393381       -1.0121101009
 C          0.5552392511        4.3905234570       -0.9822262729
 C          2.0505180865        4.3407913919       -1.0695821723
 H          2.5228354213        4.6131404526       -2.0014777300
 H          2.6257581528        4.6072716949       -0.1947748884
 H          0.1114832056        4.6992478434       -0.0475519827
 H          0.0024119627        4.7024827100       -1.8558396813
 H          1.2048649335        2.4764159349       -1.9180228566
 O          1.7241167586        0.0514179373       -1.6153714818
