  62
        -98.93881814
 C          1.0806668991        1.6244923461       -0.2127061881
 C          1.1438467925        0.2057312931       -0.2053926382
 C          2.2663913327       -0.3889595119        0.5366262714
 C          3.1152093233        0.3876488328        1.2282408217
 C          4.2885105873       -0.0784133868        2.0463696434
 C          5.5604598069       -0.3298023824        1.2242731866
 C          5.5312673380       -1.5779730506        0.3407741177
 H          6.5535947026       -1.7502464400       -0.0017529019
 H          5.2400145711       -2.4395042946        0.9423971430
 C          4.6122564980       -1.4677386381       -0.8840759539
 H          4.3771529253       -0.4166771640       -1.0674616462
 H          5.1379468748       -1.8367240443       -1.7675470140
 C          3.3068589028       -2.2554403529       -0.7696042625
 H          3.5284420179       -3.3234730024       -0.7174948585
 H          2.7162673472       -2.0758022259       -1.6712304746
 C          2.4474784516       -1.8740761188        0.4426489228
 H          1.4576112825       -2.3194465140        0.3199002080
 H          2.8938675190       -2.2592683010        1.3593893588
 H          5.7551980047        0.5500382172        0.6064769010
 H          6.3885513149       -0.4294862231        1.9299198300
 H          4.4960564061        0.7126973341        2.7703746893
 H          4.0187727892       -0.9837410716        2.5914275313
 O          2.9793353875        1.7389922992        1.2705898862
 C          1.9925092399        2.3776185605        0.5426629013
 O          2.0282591397        3.6220375113        0.6518464942
 H         -1.4428676790        0.3216860024       -0.2340345107
 C         -1.9516922873        1.2522261141       -0.0540368118
 C         -1.3236613707        2.4500299733       -0.3550531705
 C         -2.0094290302        3.6379183632       -0.1182202511
 C         -3.2846054503        3.6218097358        0.4167326237
 C         -3.8953209071        2.4238223854        0.7443131759
 C         -3.2185403725        1.2333959771        0.5107328278
 N         -3.8000829487       -0.0068131093        0.8134473679
 S         -2.8476452031       -1.2443529238        1.4219137981
 O         -3.7842723945       -2.0996549520        2.1272346689
 O         -1.7581843035       -0.7338572377        2.2241848279
 C         -2.2420329290       -2.1446193178        0.0112943465
 C         -2.7594425978       -1.9279231771       -1.2481149601
 C         -2.2718657038       -2.6782085983       -2.3064993044
 C         -1.2896085559       -3.6302580836       -2.0884666954
 C         -0.7875079780       -3.8419550660       -0.8145601851
 C         -1.2674772072       -3.0926419164        0.2465835593
 H         -0.8944086243       -3.2117846893        1.2524009862
 H         -0.0173507875       -4.5783618697       -0.6463279767
 H         -0.9058612955       -4.2054933354       -2.9164848088
 H         -2.6544742395       -2.5091972740       -3.3004650760
 H         -3.5123142550       -1.1706120766       -1.3922428822
 H         -4.6937921538        0.0359228397        1.2808711440
 H         -4.8832042530        2.4097955603        1.1794089909
 H         -3.8039794956        4.5512469068        0.5952896608
 H         -1.5289257198        4.5790427823       -0.3444910256
 C          0.0649911003        2.4868171536       -0.9527265901
 H          0.4432845502        3.5086443133       -0.7937816813
 C         -0.0327447890        2.3317613333       -2.4697527453
 C          1.0331814315        1.6780927469       -3.2938572901
 C         -0.3257974678        1.0533240690       -3.1912370238
 H         -0.9779027391        1.1007416493       -4.0512190334
 H         -0.4164102353        0.1520289265       -2.6083669040
 H          1.8437515013        1.1968390821       -2.7654255138
 H          1.3316062173        2.1467161997       -4.2201917128
 H         -0.4837970204        3.2198296568       -2.9050287737
 O          0.3351124283       -0.5681396222       -0.7786252858
