  62
        -98.93969718
 C          1.7759881906        0.5438166694        0.8400849308
 C          2.7918422706        1.2215122299        0.1206258713
 C          4.1613102806        0.7164133598        0.3167460711
 C          4.3771761606       -0.3218809208        1.1428579104
 C          5.7108271806       -0.9657756909        1.3859975401
 C          5.9529158707       -2.1281802602        0.4131278693
 C          5.6812054308       -1.7758843093       -1.0494556605
 H          5.9153534108       -2.6606369389       -1.6455734910
 H          4.6141667708       -1.5776993092       -1.1753544804
 C          6.4855065708       -0.5780915989       -1.5738233296
 H          7.3360955207       -0.3878786193       -0.9182615495
 H          6.8853112408       -0.8297806683       -2.5584160098
 C          5.6738307707        0.7081697212       -1.7380025389
 H          6.2746605907        1.4170918315       -2.3137863384
 H          4.7705359908        0.4989679715       -2.3163267290
 C          5.2620493006        1.4089224103       -0.4371227884
 H          4.8691884506        2.3948905605       -0.7017812778
 H          6.1378143106        1.5471129599        0.2000100317
 H          6.9865640307       -2.4612429603        0.5236954392
 H          5.2973073607       -2.9561446204        0.6932150587
 H          5.7257363105       -1.3494195215        2.4076289898
 H          6.4944808906       -0.2184106408        1.2776996506
 O          3.3795136806       -0.9402775312        1.8259768199
 C          2.0646727806       -0.5316291812        1.6849482201
 O          1.2514325305       -1.1891836016        2.3664014896
 O          2.5901877106        2.1967981104       -0.6463325181
 C          0.3056441706        0.9253690194        0.7549040510
 C         -0.3411999793        0.2358230501       -0.4186917095
 C          0.1423380007        0.4168605310       -1.7121443294
 C         -0.4465791292       -0.2380572083       -2.7770678799
 C         -1.5300439192       -1.0761384685       -2.5774818205
 C         -2.0154347392       -1.2696986894       -1.2896136506
 C         -1.4218663393       -0.6110445300       -0.2198017602
 H         -1.7885096294       -0.7941771307        0.7791063597
 N         -3.0987180792       -2.1270909595       -1.0632297912
 S         -4.1735925393       -1.8644424704        0.1808910389
 O         -3.5995536494       -2.2573112812        1.4430828686
 O         -5.3627910193       -2.5851019802       -0.2217611017
 C         -4.5100997994       -0.1116032104        0.1832508200
 C         -4.4870098795        0.5754334088        1.3796932104
 C         -4.7833797695        1.9297726288        1.3834085213
 C         -5.0904985294        2.5721253496        0.1940729717
 C         -5.1084844394        1.8684425804       -1.0002661588
 C         -4.8207357493        0.5132151804       -1.0086663296
 H         -4.8375713092       -0.0591086790       -1.9215690000
 H         -5.3453058993        2.3713652810       -1.9238511685
 H         -5.3133043295        3.6270885196        0.1989887124
 H         -4.7672650796        2.4773745182        2.3121785816
 H         -4.2296864095        0.0399503783        2.2800353801
 H         -3.5413177492       -2.4998540490       -1.8893799815
 H         -1.9885715391       -1.5890461680       -3.4090828408
 H         -0.0619899591       -0.0916214977       -3.7750659497
 H          0.9837840907        1.0746155211       -1.8668227989
 H         -0.1487126695        0.5122078388        1.6692805507
 C          0.0826327505        2.4329802294        0.7727950619
 C         -0.5924989394        3.1868474501       -0.3306040476
 C         -1.3047495595        2.9692416492        0.9675945422
 H         -1.4478571496        3.8076260088        1.6320199127
 H         -2.1113768395        2.2510664092        0.9799423817
 H         -0.2170602194        4.1724010102       -0.5594985270
 H         -0.9327923294        2.6383613606       -1.1942047480
 H          0.8804869605        2.9554301190        1.2894723023
