  62
        -98.94115156
 C         -1.7121061946        0.1906055491       -0.1940230577
 C         -2.8475293660        0.9791774410        0.1148702897
 C         -4.0046622130        0.2503833904        0.6538385685
 C         -3.9297134835       -1.0744330071        0.8695873452
 C         -5.0155944476       -1.9451156437        1.4409735305
 C         -6.0450337805       -2.4199463965        0.4061971916
 C         -7.0122093579       -1.3446388293       -0.0906503687
 H         -7.8074676883       -1.8565633889       -0.6362485898
 H         -7.4722749258       -0.8481192433        0.7642930804
 C         -6.3750460316       -0.2977530628       -1.0150665346
 H         -7.0195068836       -0.1371150059       -1.8823547957
 H         -5.4215321385       -0.6756556293       -1.3910367331
 C         -6.1436705183        1.0658050316       -0.3638476959
 H         -5.6551824959        1.7157480630       -1.0943176443
 H         -7.1044079532        1.5153725890       -0.1029500952
 C         -5.2664294301        1.0236361425        0.8940618290
 H         -4.9852402394        2.0478935322        1.1506253038
 H         -5.8232341148        0.5949583067        1.7269329762
 H         -6.6298597220       -3.2171667275        0.8708769425
 H         -5.5121485856       -2.8513545543       -0.4442701563
 H         -4.5201757026       -2.8228570067        1.8614166820
 H         -5.5254848117       -1.4151521234        2.2460004180
 O         -2.8073062937       -1.7919822419        0.5996312116
 C         -1.6925097938       -1.1879328371        0.0460089481
 O         -0.7518947571       -1.9740146053       -0.1854605884
 H          2.0931521314        0.0597464285       -0.2098522400
 C          1.7617588095        0.8972973944        0.3847279410
 C          0.4674007118        1.3735743853        0.2371962115
 C          0.0500554254        2.4390427846        1.0274722617
 C          0.9162318334        3.0096571346        1.9416937165
 C          2.2159224200        2.5506617332        2.0659768869
 C          2.6432849571        1.4883813818        1.2786075023
 N          3.9516178122        0.9962414235        1.3806060047
 S          4.7684676504        0.4840813819        0.0123789117
 O          6.1677527739        0.6081675641        0.3607572772
 O          4.3392647649        1.2021295170       -1.1644058295
 C          4.3633870339       -1.2429726779       -0.1274977898
 C          4.6079833595       -2.0607469082        0.9577752209
 C          4.3159775213       -3.4110585800        0.8569937029
 C          3.7889095037       -3.9185819312       -0.3210105915
 C          3.5529063775       -3.0854476160       -1.4031648343
 C          3.8432286317       -1.7337610115       -1.3080541793
 H          3.6714243476       -1.0507175884       -2.1255939129
 H          3.1398080306       -3.4809946012       -2.3172696175
 H          3.5590951416       -4.9696266517       -0.3974040752
 H          4.4973852654       -4.0637250050        1.6957612629
 H          5.0223054674       -1.6305663501        1.8542853329
 H          4.5521528732        1.5072671267        2.0109190101
 H          2.8958400997        3.0101379810        2.7674924887
 H          0.5808587739        3.8327658506        2.5546901350
 H         -0.9564142638        2.8121237168        0.9177260790
 C         -0.4368712282        0.7521970012       -0.8004491465
 H          0.0952859754       -0.1123956246       -1.2203542441
 C         -0.6850353875        1.7467549986       -1.9203422874
 C          0.4528414230        2.1028990315       -2.8277122530
 C         -0.6845465240        1.2721947835       -3.3405000085
 H         -1.3787833907        1.7216394091       -4.0348024762
 H         -0.5096351727        0.2206621659       -3.5171152665
 H          0.5372121644        3.1236257625       -3.1685923639
 H          1.4060234602        1.6250526151       -2.6518684951
 H         -1.3802205892        2.5312206522       -1.6524070296
 O         -2.9197973927        2.2277190650       -0.0365675653
