  62
        -98.94436871
 C          2.6334515469        1.3167350467        0.1158421095
 C          2.5971742047        0.2924429667       -0.8610019527
 C          3.6653733111       -0.7149426581       -0.7722718628
 C          4.5966675766       -0.6103838202        0.1928644292
 C          5.7089784577       -1.5906467030        0.4247832869
 C          5.2897669569       -2.6814873479        1.4199965531
 C          3.9409443797       -3.3254573820        1.0986778002
 H          3.1500745564       -2.5807588742        1.2171324530
 H          3.7640611848       -4.1013866027        1.8466292461
 C          3.8490211976       -3.9396948498       -0.3051292192
 H          3.3767687267       -4.9212666162       -0.2274898586
 H          4.8503522836       -4.0925040187       -0.7094991115
 C          3.0200032095       -3.1264366919       -1.3013328107
 H          2.0453251206       -2.8916806411       -0.8640329434
 H          2.8387380664       -3.7500409360       -2.1811762206
 C          3.6581278793       -1.8200286352       -1.7906902645
 H          3.0579874625       -1.4522733058       -2.6282958821
 H          4.6689618825       -2.0179881118       -2.1532706694
 H          5.2273976990       -2.2366735521        2.4157088069
 H          6.0656581511       -3.4488697368        1.4381195017
 H          6.5643308837       -1.0491187383        0.8321626029
 H          5.9939879689       -2.0400007375       -0.5244042217
 O          4.6018728203        0.3906560908        1.1091434786
 C          3.6175540449        1.3631582251        1.1062223770
 O          3.7275005858        2.2071291003        2.0176487118
 O          1.7295348361        0.2175640668       -1.7713808407
 C          1.5740531887        2.4074660108        0.1525613644
 C          0.2532752266        1.7715646529        0.5112396361
 C          0.0033350497        1.4419304791        1.8409675797
 C         -1.1702831472        0.8081273234        2.2015212198
 C         -2.1161985052        0.4814744224        1.2444063393
 C         -1.8669158740        0.7874042861       -0.0859424980
 C         -0.6948670287        1.4430453237       -0.4435039569
 H         -0.5098468514        1.6650127043       -1.4822556559
 N         -2.8149187613        0.4581010704       -1.0675190881
 S         -3.5693104658       -1.0378952847       -1.0086418099
 O         -2.7355450610       -2.0430299332       -0.3911306084
 O         -3.9936368777       -1.2983810283       -2.3670628171
 C         -5.0105085442       -0.7349958460       -0.0053343927
 C         -5.8228770948        0.3314545872       -0.3379062954
 C         -6.9531981566        0.5756074938        0.4253730997
 C         -7.2532061860       -0.2479206299        1.5003329493
 C         -6.4303403165       -1.3171555597        1.8188661636
 C         -5.2971986985       -1.5659465243        1.0598004980
 H         -4.6252376526       -2.3818558112        1.2745217330
 H         -6.6650902547       -1.9569121443        2.6544109393
 H         -8.1333014846       -0.0552990375        2.0933303335
 H         -7.5952456519        1.4064166093        0.1807907621
 H         -5.5563825549        0.9460440093       -1.1813558700
 H         -2.5164906861        0.6756519047       -2.0074149055
 H         -3.0283947016       -0.0231955388        1.5175034155
 H         -1.3523139536        0.5629700087        3.2369620343
 H          0.7508353070        1.6807824510        2.5852562568
 H          1.8619905240        3.0770634287        0.9739049166
 C          1.5466621116        3.2032949831       -1.1354405745
 C          0.8404833483        4.5244361888       -1.1665705692
 C          2.3368963154        4.4725335116       -1.2254148847
 H          2.8262749010        4.7086723705       -2.1584922613
 H          2.8954640031        4.7753336557       -0.3517429130
 H          0.3006353797        4.8008134327       -2.0593707290
 H          0.3810306312        4.8636949414       -0.2506254172
 H          1.5079015971        2.5838343852       -2.0229305305
