  62
        -98.94265748
 C         -2.0667303100       -1.4108454909        0.1108084859
 C         -1.7197135582       -0.2903917234       -0.6810103566
 C         -2.8116724255        0.6512187286       -0.9661921978
 C         -4.0494799634        0.3843396027       -0.5107585919
 C         -5.2392720900        1.2816987369       -0.6878331051
 C         -5.3846793971        2.2533398700        0.4921106889
 C         -4.0915919204        2.9820704948        0.8579115259
 H         -4.3239648003        3.6600848542        1.6818805183
 H         -3.3674856787        2.2555426492        1.2335363976
 C         -3.4599905193        3.7761187598       -0.2940997766
 H         -4.2001849643        3.9468377803       -1.0765502907
 H         -3.1547197736        4.7547067394        0.0820425125
 C         -2.2172884296        3.1255614778       -0.9049942796
 H         -1.7228025630        3.8644675763       -1.5411774432
 H         -1.5201983082        2.8529313115       -0.1084148800
 C         -2.4714237728        1.8793322777       -1.7624082723
 H         -3.2465233374        2.0905568102       -2.5018065187
 H         -1.5447734231        1.6443927112       -2.2948687861
 H         -5.7177929665        1.6885685560        1.3659168218
 H         -6.1582852963        2.9823711837        0.2443387990
 H         -5.1337435053        1.8361452516       -1.6182915606
 H         -6.1336812968        0.6591626702       -0.7462822022
 O         -4.3505834475       -0.7241199728        0.2135440718
 C         -3.3682740073       -1.6377549847        0.5579782366
 O         -3.7688794212       -2.5910237835        1.2553519564
 H          1.6728715560       -2.6324603869       -0.2114726716
 C          1.4867544782       -1.9247606793        0.5817350929
 C          0.1988401607       -1.7178226754        1.0513878964
 C          0.0090974298       -0.7939256399        2.0765535121
 C          1.0682101260       -0.0720841540        2.5912674096
 C          2.3454683200       -0.2526519419        2.0884562364
 C          2.5485579073       -1.1866992612        1.0839374265
 N          3.8614649167       -1.3244357552        0.5483744052
 S          4.0825126323       -0.3550004068       -0.8219008760
 O          3.2404061304       -0.8073128310       -1.9091171189
 O          5.5031143700       -0.3905946537       -1.0995313736
 C          3.6047118654        1.2636725213       -0.2681075978
 C          4.5697966361        2.0671892326        0.3076613352
 C          4.2080454547        3.3215301661        0.7709336177
 C          2.8928716565        3.7454576905        0.6524268574
 C          1.9382503406        2.9248539116        0.0717511057
 C          2.2898521791        1.6672611284       -0.3942724500
 H          1.5624278086        1.0049854416       -0.8394179540
 H          0.9146386639        3.2518057271       -0.0202872243
 H          2.6082031582        4.7211543856        1.0138808901
 H          4.9483763628        3.9621048745        1.2225278058
 H          5.5785739866        1.6933872767        0.3723260335
 H          4.0618076531       -2.2770988445        0.2692155819
 H          3.1803864851        0.3165761582        2.4631577813
 H          0.8981138610        0.6448017818        3.3797790103
 H         -0.9933941416       -0.6382928769        2.4526548674
 C         -1.0022026201       -2.4290296253        0.4800964599
 H         -1.4409320860       -3.0656191855        1.2621945172
 C         -0.6802645125       -3.2919027416       -0.7230088460
 C         -0.2058713563       -4.7014647372       -0.5375260279
 C         -1.5873024353       -4.4367695408       -1.0546423683
 H         -1.7990478012       -4.6428000120       -2.0932117626
 H         -2.4256963335       -4.6084861996       -0.3954168069
 H          0.5306723062       -5.0925604779       -1.2238682306
 H         -0.1052450974       -5.0669497628        0.4733568532
 H         -0.2745931047       -2.7203139617       -1.5516533220
 O         -0.5590714631       -0.0807550210       -1.1210924250
