  62
        -98.94605247
 C          1.0643784572        1.5444576778       -0.1888758594
 C          1.1709127821        0.1483011107       -0.4060119645
 C          2.2465353103       -0.5355924833        0.3293919046
 C          2.9963744709        0.1526545602        1.2071309480
 C          4.1381100021       -0.4158517110        1.9983441163
 C          5.4696895857       -0.2561427013        1.2511357898
 C          5.4211939691       -0.7243644055       -0.2031864562
 H          4.7510324397       -0.0696571123       -0.7646878386
 H          6.4223874852       -0.5947395825       -0.6197077790
 C          4.9754316242       -2.1817834940       -0.3854753023
 H          5.6399305125       -2.6634216551       -1.1058742235
 H          5.0754837980       -2.7200788735        0.5577564345
 C          3.5494607926       -2.3467943301       -0.9143258159
 H          3.4176234636       -1.7330524540       -1.8085800077
 H          3.4169562769       -3.3908134666       -1.2096422135
 C          2.4256236158       -2.0054697930        0.0724929564
 H          2.5799852228       -2.5422214976        1.0113639359
 H          1.4825982006       -2.3441352322       -0.3655899870
 H          5.7472454227        0.8004269539        1.2624741353
 H          6.2367667024       -0.8145574536        1.7908617529
 H          4.1964848359        0.1193744270        2.9478630666
 H          3.9442072562       -1.4678173554        2.1996654489
 O          2.8233402929        1.4785401433        1.4416958312
 C          1.8724140725        2.2016137556        0.7437346911
 O          1.8435191187        3.4156812432        1.0341824474
 O          0.4249559641       -0.5176213242       -1.1720601591
 C          0.0423424846        2.4319137898       -0.8846086172
 C         -1.2785408473        2.3909478293       -0.1544114625
 C         -1.8939964869        3.5556088637        0.2885611419
 C         -3.0951512603        3.4978872614        0.9731196330
 C         -3.6915421018        2.2801039608        1.2473080974
 C         -3.0811472951        1.1105335827        0.8093529949
 C         -1.8964931634        1.1740471475        0.0927405845
 H         -1.4326873063        0.2627970961       -0.2463324989
 N         -3.6475520426       -0.1476357698        1.0637389325
 S         -2.6409728198       -1.4397311847        1.4203793148
 O         -3.4863028079       -2.3586574906        2.1591109749
 O         -1.4447642325       -1.0111261324        2.1102155230
 C         -2.2455163229       -2.1935841766       -0.1423778702
 C         -2.9746427838       -1.8978447074       -1.2751734452
 C         -2.6552899971       -2.5417220250       -2.4601040085
 C         -1.6255815629       -3.4681484795       -2.4910223092
 C         -0.9083271888       -3.7591755260       -1.3419143441
 C         -1.2203086147       -3.1169178405       -0.1550875327
 H         -0.6794181725       -3.3016551235        0.7601954427
 H         -0.1027465829       -4.4760881385       -1.3674082988
 H         -1.3751769095       -3.9623271356       -3.4166557822
 H         -3.2075641935       -2.3121001648       -3.3574576953
 H         -3.7621682283       -1.1641069793       -1.2240207362
 H         -4.4685127783       -0.1419637936        1.6514097702
 H         -4.6170863697        2.2324214625        1.8008058943
 H         -3.5638823687        4.4091163741        1.3126687807
 H         -1.4159455948        4.5077284709        0.1106830028
 H          0.4343974877        3.4555201606       -0.8075030400
 C         -0.1522029740        2.1004189806       -2.3517870709
 C         -0.6970389222        3.1526983929       -3.2680835459
 C          0.7389465140        2.7363973373       -3.3738702045
 H          1.0474378407        2.1478185479       -4.2246078913
 H          1.4962449548        3.4213396034       -3.0200863810
 H         -1.3782189146        2.8514972053       -4.0487339242
 H         -0.9124559522        4.1226755834       -2.8460944526
 H         -0.4536041256        1.0754571176       -2.5210876481
