  62
        -98.93906481
 C          1.9017757394        0.7571614905        0.7015653731
 C          2.1400371702        0.2305618772       -0.5916135059
 C          2.6839351103       -1.1358285875       -0.6358452573
 C          2.8397422748       -1.8249856275        0.5080257428
 C          3.4328033086       -3.1999016875        0.6097952775
 C          4.9508510607       -3.1341581413        0.8306223297
 C          5.6771660560       -2.2050173421       -0.1422307676
 H          5.3618393641       -1.1760449137        0.0455712196
 H          6.7429585839       -2.2615299450        0.0891841570
 C          5.4564584300       -2.5392764492       -1.6240979241
 H          6.4179349284       -2.4942165217       -2.1396978655
 H          5.0832206792       -3.5592503229       -1.7215621446
 C          4.5133276166       -1.5829179796       -2.3564707090
 H          4.5976936488       -1.7768590852       -3.4289327098
 H          4.8319242465       -0.5517539246       -2.1842893975
 C          3.0285702733       -1.6964465568       -1.9870983739
 H          2.4576711750       -1.1048527509       -2.7089107434
 H          2.7067066361       -2.7368597924       -2.0656675777
 H          5.1368555242       -2.7793271035        1.8470775589
 H          5.3556975036       -4.1440300867        0.7437523075
 H          2.9709085602       -3.7106239619        1.4565226170
 H          3.2099048164       -3.7534188527       -0.3003073385
 O          2.5141199473       -1.3184937979        1.7258903077
 C          2.0442424860       -0.0219049700        1.8515145998
 O          1.7888202966        0.3168426117        3.0260889273
 H         -0.7550221302        0.5987187742        0.5945018796
 C         -0.8255198228        1.4680706483       -0.0455114377
 C          0.2027440053        2.4033782851       -0.0422257536
 C          0.0972392465        3.5096027901       -0.8741716167
 C         -1.0130813457        3.6687624704       -1.6856032706
 C         -2.0366031537        2.7406125875       -1.6802784855
 C         -1.9340173251        1.6211334394       -0.8598406104
 N         -2.9342368135        0.6346885007       -0.8692905500
 S         -3.1739799934       -0.3161866924        0.4990555395
 O         -3.2267654682        0.5130991037        1.6831073848
 O         -2.2022530323       -1.3825587119        0.5039257905
 C         -4.7935893452       -0.9747451907        0.1469496493
 C         -4.9028692578       -2.0768710103       -0.6798168080
 C         -6.1640730831       -2.5681670144       -0.9779185241
 C         -7.2886755888       -1.9528220385       -0.4482418374
 C         -7.1634265003       -0.8491045234        0.3819934080
 C         -5.9051092016       -0.3521616320        0.6833176510
 H         -5.7573236561        0.4966996038        1.3313660651
 H         -8.0388761272       -0.3749765713        0.7954549914
 H         -8.2686523258       -2.3380158320       -0.6815510650
 H         -6.2647901662       -3.4281456090       -1.6201717933
 H         -4.0000453493       -2.5264690643       -1.0595093955
 H         -3.8032140461        0.9482347535       -1.2787101416
 H         -2.9007660959        2.8683707455       -2.3140481735
 H         -1.0824220796        4.5318964563       -2.3302646439
 H          0.8903384657        4.2383861126       -0.9025348276
 C          1.3583483774        2.1611895294        0.8989502381
 H          0.9466089543        2.1615948771        1.9233308608
 C          2.4186335913        3.2523865241        0.8573494100
 C          3.8562479249        2.9450203614        1.1510991189
 C          3.4409826877        3.3311201382       -0.2350007683
 H          3.7263927126        4.3070903814       -0.5995957331
 H          3.4108996662        2.5694658407       -0.9974366271
 H          4.4210844249        3.6530804203        1.7389039269
 H          4.1176905756        1.9137580622        1.3413694533
 H          2.0446774228        4.1949661539        1.2453552072
 O          1.9229761345        0.8593476835       -1.6596152807
