  62
        -98.94441177
 C          1.8029422363        0.0565506848       -0.4662173283
 C          2.9921465643       -0.1386317505       -1.2088132306
 C          4.2364068086        0.2854754424       -0.5539018640
 C          4.1776817698        0.8436266666        0.6691385896
 C          5.3707127827        1.2728801888        1.4722771275
 C          5.8664583751        0.1382453906        2.3797954918
 C          6.0431573486       -1.1976502749        1.6578895874
 H          6.4246094945       -1.9138683216        2.3888736642
 H          5.0645315318       -1.5593220179        1.3341801038
 C          6.9892784087       -1.1463307144        0.4501167222
 H          7.6120692552       -0.2527770556        0.5052419472
 H          7.6567473825       -2.0096323353        0.4915553390
 C          6.2867809156       -1.1914034668       -0.9080750809
 H          5.5913218970       -2.0340385317       -0.9326478527
 H          7.0437961005       -1.3691592208       -1.6765006179
 C          5.5210802698        0.0768470152       -1.3056516762
 H          6.1727371452        0.9471190556       -1.2049002924
 H          5.2390491714       -0.0217389874       -2.3580128861
 H          6.8156606899        0.4421503690        2.8249116950
 H          5.1421643934       -0.0010224480        3.1858086723
 H          6.1645564299        1.5848389489        0.7963641833
 H          5.0794953055        2.1219132422        2.0930688719
 O          3.0139649511        1.0392127387        1.3410107884
 C          1.7987052225        0.6437197512        0.7987908069
 O          0.8142037587        0.8684494073        1.5278552567
 O          3.0105155375       -0.6389537022       -2.3655623959
 C          0.4822109471       -0.3774958252       -1.0755010539
 C         -0.4549772762        0.7983506797       -1.1926121427
 C          0.0012945895        1.9560497621       -1.8190568815
 C         -0.8222134071        3.0550973164       -1.9596168497
 C         -2.1195499518        3.0243082417       -1.4781092684
 C         -2.5889980051        1.8727305078       -0.8594111781
 C         -1.7605133379        0.7655478480       -0.7283358216
 H         -2.1429949805       -0.1148625657       -0.2407258898
 N         -3.9148000496        1.7977711557       -0.4100260310
 S         -4.3112572882        0.9929897562        1.0028824595
 O         -5.6296945244        1.4961263096        1.3310966883
 O         -3.3041674133        1.1470613155        2.0249161647
 C         -4.4628979690       -0.7147226549        0.5235544906
 C         -5.1753240040       -1.0246078516       -0.6182234954
 C         -5.3326376057       -2.3562716733       -0.9672675846
 C         -4.7861338466       -3.3502863590       -0.1696143919
 C         -4.0764818382       -3.0225347727        0.9757531031
 C         -3.9116917576       -1.6917715999        1.3282239138
 H         -3.3559421555       -1.3900966159        2.2024705848
 H         -3.6503504719       -3.7957744136        1.5955659017
 H         -4.9103919885       -4.3865048302       -0.4419550670
 H         -5.8813678388       -2.6158623612       -1.8580715523
 H         -5.5892784080       -0.2256548780       -1.2099260778
 H         -4.4432751370        2.6528506816       -0.5054105542
 H         -2.7633177337        3.8847819606       -1.5804843988
 H         -0.4519254637        3.9467431729       -2.4430435749
 H          1.0168094456        1.9817494200       -2.1905042862
 H          0.7326665047       -0.7130819978       -2.0933539146
 C         -0.1007347727       -1.5471771448       -0.3114828647
 C         -0.9692317850       -2.5430665952       -1.0188599763
 C          0.4164553171       -2.9245811671       -0.5952425916
 H          0.5357546536       -3.6099115184        0.2303911527
 H          1.1784406670       -3.0197146701       -1.3550920727
 H         -1.8063500711       -2.9679700891       -0.4863723977
 H         -1.1503938889       -2.3839535180       -2.0709001029
 H         -0.3315197368       -1.3000761688        0.7194593717
