  62
        -98.94375592
 C         -1.2938767703       -1.4218442301        0.5927785493
 C         -2.1010764601       -1.0327939801       -0.5048959709
 C         -3.1654553600       -0.0624023699       -0.2066401212
 C         -3.3006720801        0.4135973803        1.0433814487
 C         -4.3023941400        1.4476315805        1.4665336584
 C         -3.7150480898        2.8624415204        1.3688022983
 C         -3.0309953195        3.1635021401        0.0345184284
 H         -2.6987850294        4.2038896301        0.0699996883
 H         -2.1273526196        2.5541039800       -0.0548720014
 C         -3.9203240694        2.9537460001       -1.1992353418
 H         -4.9698566394        2.9491619103       -0.9015687819
 H         -3.7781050191        3.7987823400       -1.8762817919
 C         -3.6136989394        1.6868001599       -2.0000700215
 H         -2.5406887694        1.6368588197       -2.2051956113
 H         -4.1287310393        1.7599844199       -2.9618380016
 C         -4.0423225098        0.3657824701       -1.3489100414
 H         -5.0860261498        0.4304871003       -1.0347685016
 H         -3.9567594298       -0.4197811900       -2.1054187013
 H         -4.5191474797        3.5817645506        1.5366975781
 H         -2.9745073199        2.9876609404        2.1624444184
 H         -5.1882160799        1.3664511506        0.8395849083
 H         -4.5822055402        1.2523247507        2.5033692584
 O         -2.4940165903        0.0354224303        2.0675555689
 C         -1.4514113605       -0.8527443399        1.8582431292
 O         -0.7409462306       -1.0525470498        2.8649699993
 H          0.6051080200        0.1395299595       -0.0652121706
 C          1.0216494000       -0.5209125306       -0.8102250205
 C          0.7272929198       -1.8768553806       -0.7555959803
 C          1.2359210998       -2.7034793608       -1.7480328901
 C          2.0093669701       -2.1728445411       -2.7670117401
 C          2.3073460403       -0.8230459711       -2.8107866602
 C          1.7998069803        0.0127930591       -1.8221005704
 N          2.0617237905        1.3910057991       -1.8211467406
 S          2.1949186004        2.2029411193       -0.3676811507
 O          0.8953219403        2.4055770995        0.2225301591
 O          2.9293242506        3.4057654591       -0.6988499307
 C          3.2054218100        1.1448329892        0.6543528896
 C          4.5138881401        0.9441631790        0.2575433299
 C          5.3188655798        0.0939576790        0.9967867601
 C          4.8032448696       -0.5437275908        2.1153050101
 C          3.4912579695       -0.3269315705        2.5053116599
 C          2.6817447998        0.5255654395        1.7702977297
 H          1.6550554898        0.7046714697        2.0514257795
 H          3.0820582893       -0.8201316903        3.3728577099
 H          5.4262124194       -1.2118757808        2.6886047803
 H          6.3412846099       -0.0723771412        0.6984227103
 H          4.8815897403        1.4656219888       -0.6111182901
 H          2.7339964306        1.7060131989       -2.5041448005
 H          2.9104834705       -0.4147970113       -3.6070049702
 H          2.3901455001       -2.8236166812       -3.5394289999
 H          1.0103687597       -3.7570401908       -1.7393957200
 C         -0.1048844105       -2.3502634303        0.4123706996
 H          0.5029566194       -2.2014686702        1.3213785597
 C         -0.4464320007       -3.8321210902        0.3641313298
 C         -1.7432993909       -4.3483078299        0.9109079697
 C         -1.4830460906       -4.3882244702       -0.5635244603
 H         -1.2964268407       -5.3480536403       -1.0229336701
 H         -2.0052774604       -3.6905065402       -1.1980068205
 H         -1.7333678911       -5.2754356399        1.4645083198
 H         -2.4526494108       -3.6236989898        1.2848370494
 H          0.4251743692       -4.4534485203        0.5454251500
 O         -1.9496612800       -1.4614833503       -1.6777535108
