  62
        -98.94624604
 C         -1.8126205938       -1.0278513342       -0.3050811823
 C         -3.1690073348       -1.3016752115       -0.0073972039
 C         -4.1310829221       -0.2697157676       -0.4096037666
 C         -3.6975713200        0.8393672803       -1.0364087570
 C         -4.5592118457        1.9697212963       -1.5306131648
 C         -4.9052705426        3.0088534543       -0.4551778039
 C         -5.9187528988        2.5477677452        0.5930110959
 H         -6.2317439507        3.4344750210        1.1478481829
 H         -6.8017869640        2.1490687930        0.0926500997
 C         -5.3751717201        1.5111120170        1.5861729228
 H         -4.2832634931        1.5116825166        1.5515831137
 H         -5.6633097893        1.7929969428        2.6014127685
 C         -5.8765678445        0.0859795618        1.3525751071
 H         -5.4020915898       -0.5697722543        2.0871767805
 H         -6.9560158620        0.0456697848        1.5143475864
 C         -5.5712392708       -0.4693809646       -0.0448070854
 H         -6.2203163654       -0.0026037360       -0.7853742244
 H         -5.7658443136       -1.5446979845       -0.0366014590
 H         -3.9828033898        3.3181979933        0.0414196475
 H         -5.3164623130        3.8820343910       -0.9669035252
 H         -5.4779260709        1.5692639659       -1.9601350272
 H         -3.9942343440        2.4677108449       -2.3214898030
 O         -2.3853743515        1.0573925438       -1.3182852761
 C         -1.4106871860        0.1416592239       -0.9486915739
 O         -0.2502858510        0.4803370094       -1.2472713131
 O         -3.5549819357       -2.3548391635        0.5668930295
 C         -0.7550216911       -2.0461825251        0.0790107850
 C          0.2853544778       -1.4090426248        0.9655152225
 C         -0.1316219626       -0.7328071150        2.1103860127
 C          0.7842083516       -0.1318086470        2.9508777342
 C          2.1378339296       -0.1850923794        2.6643637392
 C          2.5656066639       -0.8627659701        1.5302456176
 C          1.6423486094       -1.4796620854        0.6950165406
 H          2.0060300230       -1.9944048496       -0.1777531148
 N          3.9365362701       -0.9617428708        1.2276327274
 S          4.5117757134       -0.4655574683       -0.2643352743
 O          3.8759020550       -1.2178489419       -1.3135542365
 O          5.9487600454       -0.6010158961       -0.1620600494
 C          4.0900265907        1.2650527505       -0.3647734384
 C          5.0713409564        2.1964614698       -0.0817814001
 C          4.7477466608        3.5428628495       -0.1024763122
 C          3.4496127576        3.9342614721       -0.3950439756
 C          2.4767508639        2.9864619703       -0.6708583326
 C          2.7930200872        1.6361484652       -0.6573727435
 H          2.0414450056        0.8930378833       -0.8732129459
 H          1.4632634499        3.2769112714       -0.8986464905
 H          3.1940613264        4.9822183791       -0.4096559992
 H          5.5045313247        4.2807947111        0.1100922252
 H          6.0670854254        1.8454820918        0.1365299542
 H          4.5393617842       -0.5973103783        1.9523757938
 H          2.8560264548        0.2892554018        3.3159641506
 H          0.4437393757        0.3885210144        3.8333885819
 H         -1.1898113668       -0.6854475050        2.3297286469
 H         -1.2853202406       -2.8114227491        0.6656146494
 C         -0.1803574810       -2.7002186349       -1.1597312156
 C          0.3713774168       -4.0916558347       -1.0896185910
 C         -0.9250972446       -3.8338904272       -1.7954950431
 H         -0.9488218563       -3.8955028686       -2.8732251367
 H         -1.8403503230       -4.1540071675       -1.3191054311
 H          1.2431494090       -4.3279631365       -1.6813765294
 H          0.3377772636       -4.5948648807       -0.1350426152
 H          0.3094767981       -1.9933339018       -1.8213066673
