  62
        -98.94056788
 C          1.2524642603        1.2534423069       -0.1812939859
 C          2.3123980937        1.1263529735        0.7492963523
 C          3.1481244167       -0.0859152457        0.6603152165
 C          2.8505751291       -1.0049973518       -0.2768030059
 C          3.5804649580       -2.2843653888       -0.5892002150
 C          4.8889726192       -2.0456095419       -1.3611765466
 C          5.7407797602       -0.8882860452       -0.8463400399
 H          6.5718907916       -0.7521266005       -1.5434809221
 H          5.1497154036        0.0291757006       -0.8656945890
 C          6.3297483297       -1.0834758255        0.5486866656
 H          6.9747417034       -0.2246286988        0.7518109211
 H          6.9584181439       -1.9768724536        0.5506285229
 C          5.3183410398       -1.1988071984        1.6908001573
 H          5.8732004249       -1.0939213063        2.6278141458
 H          4.8628465379       -2.1850676395        1.7120096175
 C          4.2416772341       -0.1179934701        1.7005448808
 H          3.7270072209       -0.1483225886        2.6685944412
 H          4.7225894827        0.8661250260        1.6627079264
 H          5.4739767941       -2.9667005569       -1.3426167601
 H          4.6322618905       -1.8301760880       -2.4011954219
 H          3.7673953618       -2.8415477022        0.3241188170
 H          2.9164240054       -2.8812465973       -1.2179293403
 O          1.8089983168       -0.8496711223       -1.1403230365
 C          0.9838412550        0.2579692534       -1.1205001529
 O          0.0810680281        0.2277932431       -1.9790919112
 O          2.5648853405        1.9999881576        1.6220850079
 C          0.3812212209        2.4963744060       -0.0892657970
 C         -0.9416995547        2.0946016887        0.5127586398
 C         -1.1267791342        2.1571876185        1.8903471760
 C         -2.3022930274        1.7114261936        2.4673464505
 C         -3.3107623060        1.1759726027        1.6848003201
 C         -3.1271936511        1.0965938771        0.3110969386
 C         -1.9613432085        1.5729139513       -0.2697911858
 H         -1.8276560356        1.4890045841       -1.3365999669
 N         -4.1244278576        0.4961873512       -0.4912378165
 S         -4.3956258464       -1.1273801331       -0.1702464338
 O         -5.0885771074       -1.6431773455       -1.3290722971
 O         -5.0932920764       -1.2396187650        1.0863138088
 C         -2.7766183170       -1.8632529539       -0.0316342321
 C         -2.1492709817       -2.3068539095       -1.1778225479
 C         -0.8748630772       -2.8399514754       -1.0817425980
 C         -0.2470813038       -2.9048520401        0.1518310506
 C         -0.8856128997       -2.4445189251        1.2925823328
 C         -2.1647152008       -1.9205233007        1.2043976874
 H         -2.6972807337       -1.5636328428        2.0705302135
 H         -0.3890360905       -2.4889892453        2.2489220843
 H          0.7487184862       -3.3132361921        0.2250334977
 H         -0.3703798245       -3.1867875960       -1.9690701914
 H         -2.6683417335       -2.2380520882       -2.1204007951
 H         -3.9354879681        0.6023275219       -1.4789333252
 H         -4.2235320898        0.7978243657        2.1162501211
 H         -2.4329841114        1.7737648524        3.5370828836
 H         -0.3288575251        2.5451587646        2.5073955934
 H          0.8930283073        3.1568676448        0.6229225302
 C          0.2469878128        3.2202978916       -1.4126398763
 C         -0.2850186265        4.6212815720       -1.4239745299
 C          1.1623411963        4.3666248794       -1.7166762210
 H          1.5140382377        4.4896438204       -2.7301272446
 H          1.8906094149        4.6387764430       -0.9667685289
 H         -0.9294968619        4.9225137675       -2.2355601410
 H         -0.5398594781        5.0643448941       -0.4730937384
 H         -0.0185730903        2.5725658927       -2.2382965702
