  62
        -98.94370846
 C         -1.9526753833       -1.3107003012       -0.2267866973
 C         -1.8196156588        0.0231505809        0.2288082056
 C         -3.0294036047        0.6178743539        0.8110086083
 C         -4.1562367604       -0.1109542969        0.9048748462
 C         -5.4631548934        0.3526829065        1.4888965080
 C         -6.3389084179        1.1430677662        0.5067406270
 C         -5.8511316801        2.5576397003        0.1901730041
 H         -6.6661103360        3.0679547375       -0.3271620543
 H         -5.6708172827        3.0952812743        1.1216278202
 C         -4.5957425963        2.6132364192       -0.6915577426
 H         -4.4517388703        1.6467523279       -1.1800026584
 H         -4.7395723716        3.3530289595       -1.4822557666
 C         -3.3136155306        2.9875026266        0.0522382176
 H         -3.3939588653        4.0090810849        0.4302995495
 H         -2.4847196729        2.9540358935       -0.6590991695
 C         -2.9726724532        2.0577507604        1.2239313381
 H         -1.9508403949        2.2697316435        1.5485696899
 H         -3.6477575738        2.2422139769        2.0592496571
 H         -6.4265292041        0.5716719830       -0.4203231747
 H         -7.3362569786        1.2159849693        0.9466573724
 H         -6.0067977076       -0.5461180220        1.7881661716
 H         -5.2750243563        0.9558038085        2.3777039747
 O         -4.2325513328       -1.4016596993        0.4822672331
 C         -3.1431327253       -2.0258824352       -0.1058264509
 O         -3.3546954944       -3.2027351819       -0.4641001556
 H          1.8644456958       -1.3960162186       -1.4358524649
 C          1.6996655334       -1.6397156051       -0.3976811828
 C          0.4274858792       -1.9693746639        0.0441610253
 C          0.2558307224       -2.2891581688        1.3884429892
 C          1.3210394441       -2.2561132229        2.2676433676
 C          2.5876627855       -1.9152056885        1.8254216475
 C          2.7732057881       -1.6062034117        0.4853665707
 N          4.0660437606       -1.2737139299        0.0291052352
 S          4.7880990333        0.1243459786        0.6012000170
 O          6.1138033397        0.1386457413        0.0255231866
 O          4.7138514652        0.1362957036        2.0393719405
 C          3.8312240316        1.4656853192       -0.0847068899
 C          4.3911916187        2.2554100128       -1.0702953653
 C          3.6291868867        3.2662836821       -1.6330095764
 C          2.3206582825        3.4583446108       -1.2148036993
 C          1.7713003223        2.6532953594       -0.2289847168
 C          2.5328646321        1.6492065349        0.3473677558
 H          2.1191963589        1.0103528912        1.1107810636
 H          0.7460385154        2.7705627859        0.0823519752
 H          1.7231275472        4.2382460299       -1.6605952566
 H          4.0534692311        3.8953342546       -2.3992319913
 H          5.4087820316        2.0634595752       -1.3703697868
 H          4.1542452938       -1.2992403878       -0.9774994398
 H          3.4255638302       -1.8658830126        2.5010528145
 H          1.1662574733       -2.5002169243        3.3080704282
 H         -0.7324143228       -2.5560789387        1.7388186550
 C         -0.7685456468       -2.0031586290       -0.8758908689
 H         -1.0653162786       -3.0533375501       -1.0133665425
 C         -0.5011670268       -1.3891580279       -2.2354416871
 C          0.0820793836       -2.2158311719       -3.3411579922
 C         -1.3569723501       -1.8009874942       -3.3938721105
 H         -1.6527952761       -1.0496344103       -4.1105940413
 H         -2.1147327669       -2.5484233380       -3.2078171564
 H          0.3017642378       -3.2516347603       -3.1301070262
 H          0.7722296206       -1.7489018865       -4.0280304452
 H         -0.2172756323       -0.3445996580       -2.1700452683
 O         -0.7522404942        0.6820794499        0.1558121235
