  62
        -98.94435087
 C         -1.8429033420       -1.0754781845       -0.1819766806
 C         -2.3500827141        0.0629578314       -0.8531970987
 C         -3.8134798966        0.2062165973       -0.8496235794
 C         -4.5677727973       -0.7318553304       -0.2482804526
 C         -6.0620479668       -0.6777008893       -0.1196806718
 C         -6.4813572095        0.0197637022        1.1822021270
 C         -5.7790248631        1.3563499498        1.4219046392
 H         -6.1744521415        1.7691883948        2.3525108531
 H         -4.7126374790        1.1771798889        1.5770532286
 C         -5.9589193540        2.3796230328        0.2919413140
 H         -6.8071240015        2.0970562102       -0.3327064984
 H         -6.1907556460        3.3513680025        0.7329849730
 C         -4.7239361329        2.5743395840       -0.5898646947
 H         -3.8498507549        2.7665313686        0.0378372274
 H         -4.8835738591        3.4619657765       -1.2080227519
 C         -4.3900111719        1.4130030181       -1.5346510475
 H         -5.2751483165        1.1431951373       -2.1143984205
 H         -3.6176547319        1.7605829228       -2.2272695356
 H         -7.5616902267        0.1735831386        1.1588796828
 H         -6.2503554524       -0.6429080072        2.0193915159
 H         -6.4765046279       -0.1505437134       -0.9767199850
 H         -6.4444049844       -1.6997625809       -0.1134049217
 O         -4.0438290507       -1.8243501592        0.3640625900
 C         -2.6733417883       -2.0181437781        0.4235872112
 O         -2.3237439713       -3.0472991821        1.0358997391
 H          1.8158871055        0.1952090000       -1.0111503307
 C          1.4124080652        0.5328369184       -0.0714982758
 C          0.3294567938       -0.1086732710        0.5074273603
 C         -0.1623125602        0.3732806958        1.7190089898
 C          0.3949342107        1.4853177590        2.3174263895
 C          1.4661120624        2.1343474952        1.7279228747
 C          1.9728682991        1.6549945190        0.5270086831
 N          3.0532407202        2.2969945235       -0.0935416422
 S          4.2236710409        1.4105644377       -0.8827558910
 O          5.3875370314        2.2714630625       -0.8816881343
 O          3.7588249863        0.9887739534       -2.1797152777
 C          4.5211085796       -0.0121034081        0.1533066422
 C          4.4789197855       -1.2753074844       -0.3983917461
 C          4.7159399878       -2.3726779828        0.4142211294
 C          4.9874594078       -2.1877974002        1.7605455399
 C          5.0313548121       -0.9111413964        2.3001002565
 C          4.7988603229        0.1889844249        1.4912583235
 H          4.8363745422        1.1925852624        1.8820131766
 H          5.2450850428       -0.7707527692        3.3474168940
 H          5.1666584445       -3.0433324806        2.3924871755
 H          4.6852449157       -3.3653865317       -0.0060410813
 H          4.2585125024       -1.3744079727       -1.4486373105
 H          3.4429337386        3.0748360582        0.4172693852
 H          1.8968383504        3.0113566533        2.1865230402
 H         -0.0054672260        1.8517912976        3.2506913668
 H         -1.0015672760       -0.1329399020        2.1770645170
 C         -0.3431504016       -1.3067832377       -0.1157387493
 H         -0.1968143478       -2.1691979501        0.5508946086
 C          0.1831830771       -1.6602429820       -1.4905686524
 C          1.3820938479       -2.5457158531       -1.6380475744
 C          0.0198707263       -3.0655009750       -1.9840071802
 H         -0.2267160587       -3.2222788404       -3.0234523711
 H         -0.4456284828       -3.7730951517       -1.3131951115
 H          1.8489158125       -2.9077439076       -0.7347066643
 H          2.0706585598       -2.3424798094       -2.4445787835
 H          0.0470125436       -0.8599084857       -2.2094600345
 O         -1.6226389545        0.9172801380       -1.4238358105
