  62
        -98.94431872
 C         -2.6370497436       -1.1024158839        0.1901909597
 C         -2.7134652305       -0.3014923037       -0.9752872694
 C         -3.5381971567        0.9080602278       -0.8605097162
 C         -4.1798812379        1.1755408226        0.2914589574
 C         -5.0776315445        2.3549517889        0.5515697268
 C         -4.3296560099        3.6287733864        0.9686545140
 C         -3.5462907830        4.3182650116       -0.1492533926
 H         -4.2026862058        4.4795054175       -1.0047597335
 H         -3.2512784742        5.3004811350        0.2252725503
 C         -2.2876326472        3.5626314839       -0.5988891553
 H         -2.0180014361        2.8228730573        0.1589376334
 H         -1.4507189655        4.2604811870       -0.6748052207
 C         -2.4179195986        2.8604908923       -1.9508025955
 H         -2.5560124304        3.6051027075       -2.7376487375
 H         -1.4855218503        2.3259214518       -2.1505408430
 C         -3.5686808586        1.8483212126       -2.0272744226
 H         -4.5255067417        2.3673603387       -2.0760840136
 H         -3.4429406111        1.2545000155       -2.9356629766
 H         -5.0725473352        4.3327049585        1.3507350171
 H         -3.6526364973        3.3831237417        1.7905255773
 H         -5.7436889815        2.0646844097        1.3669876501
 H         -5.6801909629        2.5587988628       -0.3338315104
 O         -4.0943138536        0.3683217901        1.3835346586
 C         -3.3012280703       -0.7688610798        1.3691734147
 O         -3.2698325357       -1.3878527669        2.4535874245
 O         -2.1250412164       -0.5781613271       -2.0516088407
 C         -1.7881576633       -2.3594272038        0.1834012458
 C         -0.3598895956       -2.0347018540       -0.1854835163
 C          0.4077978637       -2.8387899452       -1.0179240500
 C          1.7204025844       -2.5036627338       -1.3024927448
 C          2.2956818826       -1.3662994106       -0.7673982603
 C          1.5420097777       -0.5614043025        0.0769270981
 C          0.2308246561       -0.9048110761        0.3669471085
 H         -0.3524821655       -0.2769694065        1.0311071529
 N          2.1180304689        0.6021953411        0.6203957560
 S          3.5623644502        0.4317604306        1.4634377583
 O          3.6717797599       -0.8791512859        2.0611024924
 O          3.6060069944        1.5574181924        2.3713694869
 C          4.8162585930        0.6418240994        0.2173307719
 C          5.7689929022       -0.3400213039        0.0282466497
 C          6.7430783925       -0.1504579248       -0.9397929152
 C          6.7469295411        1.0110912694       -1.6968088106
 C          5.7839417258        1.9883706382       -1.4928869620
 C          4.8083478478        1.8059847214       -0.5258673998
 H          4.0450131143        2.5415362667       -0.3338883061
 H          5.7899620260        2.8902562977       -2.0835701588
 H          7.5050456668        1.1560980207       -2.4501671406
 H          7.4926553923       -0.9087314468       -1.0995369604
 H          5.7221553569       -1.2290229648        0.6366964216
 H          1.4688654051        1.1609089144        1.1552236250
 H          3.3141410083       -1.0965517625       -0.9943684374
 H          2.3022151085       -3.1357248948       -1.9557620669
 H         -0.0233087374       -3.7281853042       -1.4472077672
 H         -1.7917994596       -2.7368292564        1.2173767394
 C         -2.4181868527       -3.4029446452       -0.7170391070
 C         -2.2736578516       -4.8614623878       -0.4056971069
 C         -3.5928178977       -4.1796313284       -0.2055960238
 H         -4.4002932902       -4.4031640761       -0.8864458930
 H         -3.9181016814       -3.9753174396        0.8045433066
 H         -2.1789615216       -5.5572968045       -1.2256976044
 H         -1.7067361370       -5.1325553233        0.4723195452
 H         -2.4340692123       -3.0972070516       -1.7568272918
