  62
        -98.93907473
 C         -1.8815491114       -0.1495235476       -0.0561775975
 C         -2.8944188501       -0.9901691058        0.4586260239
 C         -4.2276964254       -0.3882390307        0.6324191162
 C         -4.4166762501        0.9023758121        0.2989994328
 C         -5.6395092147        1.7896262204        0.4071362662
 C         -7.0220484591        1.1900843442        0.6508312590
 C         -7.5684371886        0.3522935022       -0.5046534725
 H         -8.5083858276       -0.1014164644       -0.1829054152
 H         -7.7904425592        1.0186347745       -1.3421060124
 C         -6.6393423981       -0.7430883893       -1.0220103140
 H         -5.7370343855       -0.2917603320       -1.4398742210
 H         -7.1509712700       -1.2555381688       -1.8413295710
 C         -6.2363253074       -1.7984289234        0.0060106099
 H         -5.7134301173       -2.5953829956       -0.5295030693
 H         -7.1306017966       -2.2311165858        0.4586255315
 C         -5.3058049601       -1.3081983764        1.1289829634
 H         -5.8686730643       -0.8419607024        1.9340149717
 H         -4.7949133319       -2.1800310805        1.5479527710
 H         -7.7038561387        2.0321002836        0.7984269748
 H         -7.0271912198        0.6166869370        1.5730373002
 H         -5.6619667575        2.3773034737       -0.5161439346
 H         -5.4215779827        2.4966821473        1.2153175217
 O         -3.4030154168        1.6768816588       -0.1896254556
 C         -2.1236934626        1.1824188475       -0.3852089230
 O         -1.3176167902        2.0126230199       -0.8458001710
 O         -2.6922138678       -2.1936404139        0.7741855614
 C         -0.4886282849       -0.7171380229       -0.2615966532
 C          0.5130352293        0.0871423945        0.5281132963
 C          0.2925469950        0.2686935193        1.8921514474
 C          1.1621456921        1.0213474982        2.6554107746
 C          2.2806040962        1.5986339182        2.0786578156
 C          2.5154123636        1.4175996349        0.7220357001
 C          1.6375488149        0.6596762208       -0.0434400488
 H          1.8383743598        0.5531701773       -1.0957449867
 N          3.6362858525        2.0018494925        0.1095188460
 S          4.5881351163        1.1042067044       -0.9305531423
 O          5.8207918148        1.8539961603       -1.0312631631
 O          3.8916189244        0.8550086067       -2.1659557919
 C          4.8731413439       -0.4221514565       -0.0537565215
 C          5.8302238408       -0.4334397863        0.9424622939
 C          6.0156573473       -1.5901010962        1.6815452676
 C          5.2375793775       -2.7077989448        1.4195708904
 C          4.2820287641       -2.6803491638        0.4158237994
 C          4.0946967175       -1.5272907856       -0.3303231765
 H          3.3653240786       -1.4691809062       -1.1210490305
 H          3.6794078983       -3.5511104008        0.2119107503
 H          5.3778884885       -3.6068605554        1.9986911751
 H          6.7615648021       -1.6165588666        2.4595134507
 H          6.4204585344        0.4533701418        1.1074366890
 H          4.2095889303        2.5520878550        0.7322983553
 H          2.9579874570        2.1947905167        2.6710046421
 H          0.9717432301        1.1596877664        3.7090002759
 H         -0.5827398872       -0.1804141770        2.3415239869
 H         -0.5249822376       -1.7331740109        0.1587777679
 C         -0.1722329504       -0.8137302388       -1.7385495584
 C          0.7464042312       -1.8836153647       -2.2451366389
 C         -0.7234871122       -1.9627582325       -2.5264762320
 H         -1.0705326893       -1.7785550509       -3.5321737995
 H         -1.3074964432       -2.6962832161       -1.9899397368
 H          1.4172266889       -1.6447980110       -3.0574753103
 H          1.1515760795       -2.5742149584       -1.5207772759
 H         -0.1480927822        0.1543803884       -2.2272620615
