  62
        -98.93800960
 C          2.3180369210        1.3647917242       -0.0039461527
 C          3.0651920191        0.6217507056        0.9394413016
 C          3.8040166707       -0.5368204886        0.4163769120
 C          3.7242076518       -0.8257985283       -0.8954162574
 C          4.3517014728       -2.0153717521       -1.5651113101
 C          3.5108615237       -3.2788780500       -1.2910345346
 C          4.2172789163       -4.3362718731       -0.4414460970
 H          3.4624050018       -5.0624156976       -0.1319114516
 H          4.9441996948       -4.8619342487       -1.0640444561
 C          4.9516364600       -3.8188455604        0.7993027962
 H          5.1676099195       -4.6874575864        1.4248455262
 H          5.9147757952       -3.3983582391        0.5067986954
 C          4.1983204722       -2.7810781073        1.6413814421
 H          3.1221985882       -2.8702850782        1.4870711698
 H          4.3865887632       -2.9967128795        2.6951008132
 C          4.6300413896       -1.3226528449        1.3969654833
 H          5.6799380909       -1.2983602929        1.0931761240
 H          4.5468168611       -0.7711730175        2.3381746180
 H          2.5821988319       -2.9746245096       -0.8017820580
 H          3.2241922869       -3.7379365934       -2.2385202162
 H          4.3826190967       -1.8062202145       -2.6345269227
 H          5.3694375787       -2.1469482259       -1.2045979243
 O          2.9830802888       -0.0962499576       -1.7693791326
 C          2.2511377977        1.0057138302       -1.3501635810
 O          1.6046918559        1.5662830466       -2.2541738395
 O          3.1065207782        0.9101717501        2.1670264668
 C          1.5097090777        2.5584829026        0.4748042492
 C          0.0417977691        2.2788459281        0.2631713525
 C         -0.8208857328        3.1323606567       -0.4101492820
 C         -2.1480951619        2.7827147388       -0.5946764724
 C         -2.6438837385        1.5868019420       -0.1095913725
 C         -1.7908139947        0.7289207861        0.5729796815
 C         -0.4647041188        1.0827483655        0.7584253278
 H          0.2006817421        0.4100644599        1.2868371387
 N         -2.2864583537       -0.4892611944        1.0786335061
 S         -3.0094470397       -1.5324649695       -0.0256412252
 O         -2.8598064237       -2.8525100632        0.5489527104
 O         -2.4799246124       -1.3476022746       -1.3572747580
 C         -4.7269175346       -1.0675322332        0.0260090574
 C         -5.3758143434       -1.1126433090        1.2445587766
 C         -6.7126664078       -0.7530890651        1.3037110867
 C         -7.3745388913       -0.3598311613        0.1498501091
 C         -6.7096607678       -0.3236640201       -1.0662964942
 C         -5.3716093129       -0.6807089508       -1.1323227779
 H         -4.8107032510       -0.6613457040       -2.0532834811
 H         -7.2256417494       -0.0181705933       -1.9623467091
 H         -8.4149501829       -0.0798236176        0.1985199624
 H         -7.2331371273       -0.7800206228        2.2474156809
 H         -4.8249936603       -1.4275849706        2.1150311826
 H         -1.6070996796       -0.9938789151        1.6308512000
 H         -3.6746053348        1.3091409159       -0.2584393804
 H         -2.8056553843        3.4521564879       -1.1278661189
 H         -0.4521114800        4.0651723979       -0.8032893894
 H          1.6929517737        2.6187218318        1.5579196855
 C          1.9927793210        3.8373795531       -0.1735598168
 C          1.7952149967        5.1512506239        0.5199348917
 C          3.1657050737        4.5534739236        0.4237299180
 H          3.8841320212        5.0085097221       -0.2413520772
 H          3.6047474201        4.1293340657        1.3150220360
 H          1.5741825314        6.0218982799       -0.0785911455
 H          1.3038892867        5.1392757905        1.4809481234
 H          1.9217845870        3.8097899827       -1.2548522307
