  62
        -98.94787871
 C         -0.9184394959       -1.6690622528        0.4432226991
 C         -1.6717611679       -1.3261871234       -0.7065576097
 C         -2.8006958497       -0.4099685261       -0.4826188075
 C         -3.0622127493        0.0261848221        0.7624765632
 C         -4.1924608209        0.9404782492        1.1372200054
 C         -3.7718792742        2.4152792901        1.1290383564
 C         -3.0554791967        2.8532798130       -0.1484003640
 H         -2.8755012590        3.9282278933       -0.0680427131
 H         -2.0741875457        2.3772220452       -0.2079965156
 C         -3.8231976575        2.5626451225       -1.4450532634
 H         -3.7457192701        3.4370260533       -2.0947709027
 H         -4.8818361369        2.4101297300       -1.2287259824
 C         -3.2833760457        1.3716077045       -2.2403951352
 H         -3.6953657569        1.4222587846       -3.2523025447
 H         -2.1962625060        1.4603374670       -2.3218878663
 C         -3.6191450120       -0.0166942968       -1.6789693462
 H         -4.6873545716       -0.0756422494       -1.4562972251
 H         -3.3883744712       -0.7546276955       -2.4531797072
 H         -3.1036726537        2.5933697208        1.9750185158
 H         -4.6662842554        3.0256875180        1.2704139780
 H         -5.0166225614        0.7855157680        0.4433720761
 H         -4.5231306092        0.6745770674        2.1433332255
 O         -2.3103587873       -0.3167144773        1.8401556320
 C         -1.2159251956       -1.1588740648        1.7055830300
 O         -0.6040479539       -1.3770788544        2.7708997291
 H          0.6732275395       -0.0437008785       -0.3967574110
 C          1.4218948205       -0.6970551164       -0.8138964925
 C          1.3449957638       -2.0604414168       -0.5756339438
 C          2.3044570750       -2.8869302541       -1.1516676157
 C          3.3015637130       -2.3527610511       -1.9481742563
 C          3.3704044197       -0.9915986407       -2.1856267150
 C          2.4137814284       -0.1575199034       -1.6181130731
 N          2.4323564351        1.2201282369       -1.8534824618
 S          1.6097349637        2.3131506941       -0.9106147998
 O          0.1868959638        2.1645107511       -1.0792331383
 O          2.1633715404        3.5922733758       -1.3021161691
 C          2.0802442964        1.9526759435        0.7712375893
 C          1.1183098782        1.6143005805        1.7001040501
 C          1.5073046703        1.3060437800        2.9935101694
 C          2.8498221406        1.3497463827        3.3353993179
 C          3.8054654488        1.7070941458        2.3958722772
 C          3.4204230966        2.0086368462        1.1000189079
 H          4.1354341952        2.2934614985        0.3456143074
 H          4.8477406990        1.7445694878        2.6688938660
 H          3.1496939223        1.1030254224        4.3415930273
 H          0.7603665518        1.0103434977        3.7131254799
 H          0.0815373979        1.5827799784        1.4000363112
 H          3.2495632237        1.5950721792       -2.3076861223
 H          4.1453505180       -0.5776983083       -2.8118268755
 H          4.0383287139       -3.0056742590       -2.3907974577
 H          2.2655962576       -3.9501745843       -0.9785212767
 C          0.2678701161       -2.6058110901        0.3335011769
 H          0.6917376374       -2.6750331801        1.3473044263
 C         -0.1951801313       -3.9875710407       -0.0924895740
 C          0.4301428521       -5.2192389799        0.4882474141
 C         -0.9593714683       -4.8258312034        0.8868561861
 H         -1.7909867374       -5.4124766149        0.5264948164
 H         -1.1114767882       -4.4140389147        1.8743857366
 H          0.5530689133       -6.0829669990       -0.1478669069
 H          1.2154043626       -5.0890737788        1.2177704334
 H         -0.5152222524       -4.0147744704       -1.1277101336
 O         -1.4262466682       -1.7727080317       -1.8577561704
