  62
        -98.94524352
 C         -2.2619242300       -1.0292552460        0.1227498321
 C         -1.6874827068       -0.0783902500       -0.7572647682
 C         -2.2808335566        1.2648913138       -0.7086685449
 C         -3.3451421617        1.5024523059        0.0794866695
 C         -4.0853670121        2.8073918693        0.1981448708
 C         -3.4676978296        3.7882629428        1.2040389728
 C         -2.1517017759        4.4280174636        0.7603741501
 H         -2.2800264271        4.8725920686       -0.2268074417
 H         -1.9371435079        5.2394183078        1.4585762311
 C         -0.9573635799        3.4633686073        0.7408024638
 H         -0.0971319398        3.9371667920        1.2199483347
 H         -1.2001516303        2.5752932992        1.3300995567
 C         -0.5155498677        3.0293024865       -0.6571109709
 H         -0.1457442555        3.8974332783       -1.2058974115
 H          0.3106924118        2.3211896874       -0.5510232388
 C         -1.6115115630        2.3531299866       -1.4915983846
 H         -2.3401590881        3.0899307788       -1.8279518535
 H         -1.1414690098        1.8943565987       -2.3644384733
 H         -3.3186853791        3.2682017868        2.1534442686
 H         -4.1960460552        4.5845637028        1.3734250470
 H         -4.1505072025        3.2816898846       -0.7812440844
 H         -5.0952025567        2.5620495711        0.5341903733
 O         -3.9004795741        0.5446893577        0.8695331263
 C         -3.3512405677       -0.7264540605        0.9390177424
 O         -3.9175228009       -1.4867481562        1.7516405042
 H         -0.1658132340       -0.5585067449        1.3756725003
 C          0.4111426446       -1.4199634835        1.0631558987
 C         -0.2277642591       -2.4793469636        0.4345180396
 C          0.5371425643       -3.5782698938        0.0577954693
 C          1.8983600630       -3.6089537394        0.3037348528
 C          2.5334698587       -2.5400396418        0.9092236553
 C          1.7824923073       -1.4297569824        1.2748726425
 N          2.4129424532       -0.3210644107        1.8712076385
 S          3.7399841318        0.3830089682        1.1324069050
 O          4.8214608515       -0.5700749824        1.1120313500
 O          3.9758661896        1.5988604016        1.8773370896
 C          3.2589185956        0.7858562996       -0.5376602466
 C          3.0122424956        2.1069053972       -0.8529981797
 C          2.6267122785        2.4289657091       -2.1444269701
 C          2.4764351765        1.4264376950       -3.0890106575
 C          2.7250316978        0.1043555181       -2.7560917097
 C          3.1276797826       -0.2228021202       -1.4718093559
 H          3.3385364325       -1.2403998161       -1.1883459574
 H          2.6025730505       -0.6754152282       -3.4901638950
 H          2.1629688607        1.6757415812       -4.0905468395
 H          2.4360982917        3.4575477411       -2.4055860761
 H          3.1341864922        2.8543049856       -0.0851960535
 H          1.7666575129        0.4015782949        2.1533383907
 H          3.5964398658       -2.5393748330        1.0892475740
 H          2.4753411831       -4.4741356224        0.0142441510
 H          0.0625786549       -4.4141083375       -0.4299295142
 C         -1.7167771307       -2.4416444924        0.1816800313
 H         -2.2212128776       -2.9295091791        1.0294621974
 C         -2.0916924410       -3.1787476843       -1.0929871624
 C         -2.4969609056       -4.6209837466       -1.0590215880
 C         -3.5243438987       -3.5600006131       -1.3106125810
 H         -3.9408406167       -3.4634284303       -2.3020082094
 H         -4.2220498205       -3.3249521197       -0.5195129934
 H         -2.2085314633       -5.2571070426       -1.8824590424
 H         -2.5142885383       -5.1172400640       -0.1001215707
 H         -1.5339026445       -2.8239827806       -1.9522055699
 O         -0.7283143283       -0.3280874614       -1.5308994836
