  62
        -98.93599393
 C         -2.0000992701       -0.4431876500       -0.5679578109
 C         -2.9975509802       -1.0488300391        0.2288146497
 C         -4.2871047800       -0.3410430888        0.3284445490
 C         -4.4342430098        0.8365921806       -0.3050856821
 C         -5.6432017097        1.7365050908       -0.3549341429
 C         -6.3883625696        1.9658458022        0.9691551069
 C         -7.7593705597        1.2891957924        1.0213516875
 H         -8.3827116896        1.8186829132        1.7454002370
 H         -8.2357810897        1.3937452516        0.0442917274
 C         -7.7415116400       -0.1857165772        1.4192226289
 H         -7.5040324500       -0.2703303662        2.4819376190
 H         -8.7519410301       -0.5774979871        1.2804248693
 C         -6.7633948501       -1.0627842181        0.6351736798
 H         -6.7710640601       -0.7939705191       -0.4205189805
 H         -7.1128575103       -2.0952187880        0.7033606608
 C         -5.3273393801       -1.0188716878        1.1781634997
 H         -5.3189775500       -0.5664600469        2.1740708893
 H         -4.9533086803       -2.0390120578        1.3097367807
 H         -5.7711891097        1.6375615028        1.8039999772
 H         -6.5394040195        3.0405436423        1.0834458659
 H         -5.2708668195        2.6883336303       -0.7406557738
 H         -6.3344966698        1.3462373202       -1.1061335425
 O         -3.4385257498        1.3883144897       -1.0571614126
 C         -2.2076448799        0.7744475294       -1.2133874520
 O         -1.4073941598        1.3999988886       -1.9342769727
 O         -2.8202815703       -2.1401779986        0.8350007807
 C         -0.6550508602       -1.1327584604       -0.7099841002
 C          0.4296959100       -0.2418237401       -0.1582651511
 C          0.3302454101        0.1884148412        1.1628926485
 C          1.2883738702        1.0174592916        1.7125548677
 C          2.3728557703        1.4328011607        0.9592038173
 C          2.4885762502        0.9996086894       -0.3540119723
 C          1.5263075200        0.1602273090       -0.9031928315
 H          1.6308679400       -0.1606549720       -1.9275286812
 N          3.5960690002        1.4027544385       -1.1170922427
 S          5.1081560202        1.3370740789       -0.4059758627
 O          5.3117475005        2.4992630397        0.4224572462
 O          6.0358416402        1.1746248577       -1.5032908425
 C          5.0748181000       -0.1305718501        0.6091156687
 C          4.8619702198       -1.3457331907       -0.0116178701
 C          4.7953971196       -2.4917419099        0.7634568910
 C          4.9402539196       -2.4039099786        2.1397355109
 C          5.1588812499       -1.1775359781        2.7472300697
 C          5.2251629800       -0.0275182788        1.9767418086
 H          5.3909658502        0.9458631715        2.4089115677
 H          5.2733840399       -1.1123604171        3.8172360097
 H          4.8830016595       -3.2974396581        2.7411776617
 H          4.6276362894       -3.4473864303        0.2932474419
 H          4.7594538298       -1.3814103517       -1.0841908301
 H          3.6072905102        1.0382731576       -2.0578790924
 H          3.1214048404        2.0938470709        1.3647836366
 H          1.1912592603        1.3480283626        2.7355195674
 H         -0.5185203900       -0.1328053281        1.7509664288
 H         -0.7191463403       -2.0262674098       -0.0722750794
 C         -0.4280943303       -1.5709441918       -2.1409382298
 C          0.4993044595       -2.7106467622       -2.4376427588
 C         -0.9805674705       -2.8884454121       -2.5921123886
 H         -1.3925102305       -2.9602293330       -3.5876089785
 H         -1.5056379006       -3.4835012714       -1.8594773180
 H          1.1044417495       -2.6661991332       -3.3307556788
 H          0.9805729195       -3.1913824215       -1.5997556683
 H         -0.4722312601       -0.7462910925       -2.8437690106
