  62
        -98.93393865
 C          1.9033135844        1.2517729818        0.0845926700
 C          2.7300671962        0.7356290212        1.1139477776
 C          3.9370273213        0.0117737483        0.6876335963
 C          4.1698920925       -0.1506793859       -0.6271933983
 C          5.3127907329       -0.9224139613       -1.2233003802
 C          5.0329754152       -2.4361024733       -1.1325307375
 C          5.9890918117       -3.2003472176       -0.2162462607
 H          5.5679552692       -4.1961874859       -0.0618832124
 H          6.9465440423       -3.3236271050       -0.7267202131
 C          6.2645638763       -2.5580838119        1.1467943177
 H          6.9979900180       -1.7582886396        1.0341196225
 H          6.7323814521       -3.3234563873        1.7696578086
 C          5.0407814967       -2.0016915119        1.8860419940
 H          4.1304687118       -2.5001211679        1.5515345508
 H          5.1541378526       -2.2275993632        2.9483422430
 C          4.8603347720       -0.4765494468        1.7695920832
 H          4.4207987670       -0.1058515984        2.7004222945
 H          5.8388238078       -0.0014411978        1.6564105154
 H          5.0892558014       -2.8769534229       -2.1289989488
 H          4.0059933359       -2.5748732530       -0.7874026813
 H          5.4024663015       -0.6154480895       -2.2655685310
 H          6.2357595388       -0.6716880994       -0.7050445931
 O          3.3277117328        0.3124321429       -1.5853806381
 C          2.1725843630        1.0171911948       -1.2647141765
 O          1.5020878928        1.3579671004       -2.2551689315
 H         -0.2836256207       -0.4573057184        0.5943044037
 C         -0.8852102495        0.1541284996       -0.0675470093
 C         -0.5433428422        1.4895093715       -0.2479680821
 C         -1.3232698237        2.2635262746       -1.0958274947
 C         -2.3974990172        1.7028401438       -1.7653488747
 C         -2.7222080810        0.3697215580       -1.5994099031
 C         -1.9572582497       -0.4105250471       -0.7408157468
 N         -2.2831824041       -1.7634411932       -0.5550387725
 S         -3.8928680023       -2.1927986051       -0.4155355526
 O         -3.8888129782       -3.4103750943        0.3653137806
 O         -4.4885389496       -2.2889594840       -1.7249805460
 C         -4.6619805514       -0.8678508609        0.4995238635
 C         -4.1817683948       -0.5829895935        1.7624920754
 C         -4.7512258122        0.4582652896        2.4769314508
 C         -5.7865488586        1.1931604042        1.9193453853
 C         -6.2614699361        0.8909693810        0.6527987760
 C         -5.6941705864       -0.1483813433       -0.0671354404
 H         -6.0307613781       -0.4156564926       -1.0556046292
 H         -7.0680931479        1.4622508567        0.2225462409
 H         -6.2254819629        2.0050417709        2.4773760476
 H         -4.3834545806        0.6938167243        3.4627367219
 H         -3.3791620343       -1.1762664380        2.1707048089
 H         -1.7090642965       -2.2410357409        0.1229626347
 H         -3.5398901173       -0.0847190251       -2.1348313407
 H         -2.9859731840        2.3119451789       -2.4342404617
 H         -1.0725348690        3.2986233515       -1.2572145102
 C          0.6565248391        2.0126901597        0.5006080213
 H          0.5276750627        1.7552415395        1.5653686428
 C          0.7955839911        3.5262384633        0.4411715138
 C          2.1291200135        4.1852929564        0.6244239197
 C          1.4458702730        4.2347719599       -0.7076469693
 H          1.0260272938        5.1760513007       -1.0313982495
 H          1.8364001003        3.6324070093       -1.5124209487
 H          2.9934136129        3.5458659591        0.7320697641
 H          2.1790697411        5.0888373182        1.2133253833
 H         -0.0511925628        4.0256405879        0.9018209430
 O          2.4667247448        0.8718940699        2.3393098221
