  62
        -98.95135904
 C         -2.3390096643       -0.0844393375        0.1123127299
 C         -1.6105056581        0.4798839502       -0.9611938455
 C         -1.4484416066        1.9382282218       -0.9285792901
 C         -1.9011246689        2.6338828056        0.1302737662
 C         -1.8167537519        4.1248307780        0.3145386618
 C         -0.4614457934        4.6096685366        0.8467714421
 C          0.6748945758        4.6128466693       -0.1761779975
 H          0.3474076211        5.1276355647       -1.0806037451
 H          1.4904817234        5.1962890625        0.2558533143
 C          1.2086405428        3.2198172898       -0.5378106523
 H          2.3019484948        3.2418749195       -0.5468871563
 H          0.9189819318        2.5011105474        0.2328146812
 C          0.7587837213        2.7016947853       -1.9030152122
 H          1.1837301983        1.7055198392       -2.0390998775
 H          1.1576049465        3.3491809315       -2.6877718180
 C         -0.7613378838        2.6049007384       -2.0839820394
 H         -1.1811514721        3.5994238430       -2.2381056390
 H         -0.9586022574        2.0013103051       -2.9737369080
 H         -0.5995159940        5.6314047043        1.2089915568
 H         -0.1774019538        3.9879774034        1.6997173226
 H         -2.0395600577        4.6260684762       -0.6282091775
 H         -2.5881135235        4.3906567957        1.0407660359
 O         -2.5307335171        2.0439033438        1.1811693198
 C         -2.7692963024        0.6804892637        1.1954269760
 O         -3.3716804127        0.2728093660        2.2115062193
 H         -0.5221800835       -0.9988744232        1.6932763060
 C         -0.3138642603       -1.8569937721        1.0709179067
 C         -1.2870940552       -2.3227956255        0.1963279044
 C         -0.9995536867       -3.4370681043       -0.5818449597
 C          0.2407413148       -4.0472102225       -0.4993565172
 C          1.2243121469       -3.5474210270        0.3350024458
 C          0.9426673822       -2.4371534241        1.1226551624
 N          1.9155990862       -1.8595196962        1.9657957211
 S          2.3575033950       -0.2778189360        1.6224039794
 O          3.4315887257        0.0203250003        2.5452862598
 O          1.2042007361        0.5813508398        1.6879123955
 C          3.0116751648       -0.3631035950       -0.0353077693
 C          4.3831045480       -0.3425558545       -0.2054399770
 C          4.9061158553       -0.4889278934       -1.4796551582
 C          4.0528318385       -0.6681943749       -2.5584067975
 C          2.6801002876       -0.6931268600       -2.3704981463
 C          2.1484570791       -0.5382230762       -1.0986288557
 H          1.0816496535       -0.5460089580       -0.9385868130
 H          2.0056383293       -0.8299866604       -3.2009029207
 H          4.4580168917       -0.7886240775       -3.5506522032
 H          5.9739387967       -0.4675604389       -1.6265914046
 H          5.0058932248       -0.2049034881        0.6637229868
 H          2.7505350190       -2.4208197118        2.0677534819
 H          2.2005319961       -4.0063978394        0.3770265478
 H          0.4507448016       -4.9124941100       -1.1091584893
 H         -1.7445036436       -3.8241692702       -1.2574184400
 C         -2.6008803539       -1.5805437232        0.1536672959
 H         -3.1270047001       -1.7682993918        1.1015580375
 C         -3.4956153862       -1.9957702686       -0.9953656191
 C         -4.4093500314       -3.1747070836       -0.8516453945
 C         -4.9739432932       -1.7868919748       -0.8714319136
 H         -5.5244175887       -1.4637592409       -1.7420974300
 H         -5.3384944892       -1.3669179736        0.0551486691
 H         -4.5775777999       -3.8054422314       -1.7114704686
 H         -4.4005037590       -3.7028989833        0.0898652713
 H         -3.0440996227       -1.8099173301       -1.9628377516
 O         -1.1307167185       -0.1971058567       -1.9086442360
