  62
        -98.94792395
 C         -0.9554997724       -1.0315708497        0.7133346916
 C         -1.5256998382       -0.8924052187       -0.5750148506
 C         -2.2317552702        0.3702238221       -0.8240954967
 C         -2.2603228355        1.3206847160        0.1268401702
 C         -2.9060692780        2.6751538254        0.0069953015
 C         -4.4139731129        2.6783615915        0.2939857447
 C         -5.2862060302        2.0459229680       -0.7910567253
 H         -6.3207487984        2.3128826780       -0.5663629131
 H         -5.0386579126        2.4866802103       -1.7573592237
 C         -5.1792787803        0.5171267353       -0.8781838136
 H         -4.7312983184        0.1300130690        0.0397127399
 H         -6.1798896396        0.0858311355       -0.9541481580
 C         -4.3739786893        0.0054336713       -2.0727898752
 H         -4.8835420571        0.2721767485       -3.0014264254
 H         -4.3282529851       -1.0849984381       -2.0149385780
 C         -2.9354404077        0.5352942865       -2.1362707570
 H         -2.3821491216       -0.0436691234       -2.8803684505
 H         -2.9300089633        1.5817486622       -2.4424867504
 H         -4.5887346942        2.1689293071        1.2442734011
 H         -4.7196961081        3.7203390278        0.4131125217
 H         -2.4163869163        3.3206544597        0.7396469511
 H         -2.7203698974        3.0802310772       -0.9887755909
 O         -1.6645153414        1.1637394425        1.3394865247
 C         -0.9997383360       -0.0100025153        1.6603551763
 O         -0.4924008450       -0.0175362038        2.8002314647
 H          1.4594049705       -0.3455860961        0.3166159342
 C          1.7331344997       -1.2764973058       -0.1585765229
 C          0.9932259651       -2.4195926388        0.1160507906
 C          1.3671663040       -3.6123995295       -0.4881770122
 C          2.4361859465       -3.6432216546       -1.3676422686
 C          3.1405848817       -2.4929484219       -1.6723385455
 C          2.7814173215       -1.2963657213       -1.0619919483
 N          3.4725732416       -0.1035373947       -1.3251961250
 S          2.6213642398        1.3369427513       -1.3922296876
 O          1.2982472787        1.1628539918       -1.9446252661
 O          3.4970642607        2.2312356350       -2.1226791758
 C          2.5250318435        1.8867813434        0.2970517999
 C          1.3426654418        2.4333842164        0.7534296073
 C          1.2690957552        2.8794144879        2.0627868201
 C          2.3784343783        2.7765565965        2.8870098342
 C          3.5623432097        2.2336469149        2.4110310515
 C          3.6414893049        1.7843965822        1.1027692313
 H          4.5418185991        1.3519419865        0.6993342124
 H          4.4213580444        2.1550155934        3.0578398032
 H          2.3149338143        3.1175559525        3.9082254008
 H          0.3433675598        3.2873309383        2.4358675809
 H          0.4984107113        2.4775054684        0.0819204777
 H          4.1701738946       -0.1634549063       -2.0528860198
 H          3.9570515890       -2.5155531567       -2.3779629168
 H          2.7138503325       -4.5748805452       -1.8370032913
 H          0.8155511559       -4.5148173655       -0.2814695076
 C         -0.1745682883       -2.2855067286        1.0640127738
 H          0.2239760697       -2.1233602436        2.0765155930
 C         -1.0834710803       -3.4962553117        1.0831939815
 C         -0.7779509526       -4.6560938650        1.9815199142
 C         -1.9267107286       -3.7470098913        2.2960317884
 H         -2.9321012819       -4.1155461134        2.1581307482
 H         -1.8241045775       -3.0568940715        3.1210293713
 H          0.1030729794       -4.5897383574        2.6016749079
 H         -0.9975214152       -5.6528565454        1.6297241960
 H         -1.5263744036       -3.6981745927        0.1147202456
 O         -1.4530934775       -1.7751125813       -1.4694926909
