  62
        -98.93894881
 C          1.8342593713        0.8325510054        0.4420829204
 C          2.4912301315        0.2930250819       -0.6877134361
 C          3.5974786313       -0.6451568515       -0.4179817982
 C          3.9038138572       -0.9618658626        0.8537977382
 C          4.9422340828       -1.9054393438        1.4244753765
 C          6.0792301262       -2.4354560671        0.5546592397
 C          7.0884145113       -1.3789339536        0.1064419897
 H          7.6513568361       -1.0430629408        0.9809812475
 H          7.7934205982       -1.8512115866       -0.5811765572
 C          6.4950900537       -0.1415541052       -0.5625599952
 H          5.8684781905        0.3967583622        0.1514453177
 H          7.3218344658        0.5223922134       -0.8292178593
 C          5.6860203513       -0.4079577947       -1.8305215180
 H          6.2885134195       -0.9810874298       -2.5378215398
 H          5.4638049664        0.5597736895       -2.2880251082
 C          4.3476409046       -1.1380030797       -1.6215565485
 H          4.4869256479       -2.2154657887       -1.5736095906
 H          3.7094295157       -0.9291371231       -2.4853015866
 H          5.6804914204       -2.9694806855       -0.3028599211
 H          6.6175916361       -3.1691129630        1.1610574696
 H          5.3668568768       -1.3896520524        2.2917293755
 H          4.3822207324       -2.7605375214        1.8195020433
 O          3.2030849363       -0.4531644543        1.9108509535
 C          2.1680863780        0.4483995449        1.7384415345
 O          1.6265690894        0.8201617931        2.8002846458
 O          2.1723750354        0.5739230580       -1.8717057691
 C          0.7018800480        1.8283646450        0.2646660836
 C         -0.4356337023        1.1800177581       -0.4872523575
 C         -1.0492002366        1.7463068370       -1.5959794953
 C         -2.0838372069        1.0861620737       -2.2378626530
 C         -2.5363164767       -0.1382192745       -1.7836689858
 C         -1.9440269694       -0.7025763754       -0.6600386846
 C         -0.9074847207       -0.0414103504       -0.0205058232
 H         -0.4435084241       -0.4844672393        0.8526567874
 N         -2.4130172327       -1.9342283577       -0.1733917617
 S         -4.0685633589       -2.1602562739       -0.0805147155
 O         -4.2622673595       -3.1004276165        1.0013859227
 O         -4.5745250175       -2.5717095414       -1.3664525152
 C         -4.7419105697       -0.5635249873        0.3462329748
 C         -5.6535100632        0.0446757683       -0.4924566740
 C         -6.1425009507        1.2969120538       -0.1562077604
 C         -5.7101154245        1.9176339637        1.0051582449
 C         -4.7965956621        1.2917902644        1.8398355565
 C         -4.3064132494        0.0388176922        1.5100329640
 H         -3.5974937265       -0.4735768212        2.1410936905
 H         -4.4602550640        1.7752895769        2.7430715483
 H         -6.0862752536        2.8948191573        1.2636864679
 H         -6.8543327802        1.7849957179       -0.8020750273
 H         -5.9586075643       -0.4724021711       -1.3875812319
 H         -1.9504111778       -2.2479828397        0.6666233171
 H         -3.3285147543       -0.6717832525       -2.2833251501
 H         -2.5422631229        1.5310065557       -3.1076047454
 H         -0.7105166871        2.6992484261       -1.9667624008
 H          0.3452777461        2.0618681833        1.2785868194
 C          1.2129204837        3.1007005992       -0.3770789050
 C          0.5258583219        4.4054803172       -0.1118287603
 C          1.8714961235        4.1316119326        0.4878359665
 H          2.7295483525        4.6591971521        0.0990390763
 H          1.9302035406        3.9268140591        1.5472761064
 H          0.4610889985        5.1267376233       -0.9123439621
 H         -0.3314544602        4.3945073982        0.5438530476
 H          1.6343398832        2.9314439155       -1.3609413581
