  62
        -98.93035997
 C         -2.3763770900       -0.4742413596       -0.4071920396
 C         -3.6487319799       -1.0787831198       -0.5626260893
 C         -4.7470020401       -0.5408447695        0.2582856103
 C         -4.4810672602        0.4424456510        1.1349695998
 C         -5.4530992004        1.1656731413        2.0255851694
 C         -5.9670490305        2.4450027609        1.3433436687
 C         -7.1909763104        2.2516102203        0.4488578587
 H         -8.0635852704        2.0499398505        1.0736422888
 H         -7.3690926705        3.1979971200       -0.0669343017
 C         -7.0696904302        1.1383438397       -0.5949972007
 H         -6.0818743202        1.1745819796       -1.0580915306
 H         -7.8016052602        1.3346050392       -1.3809222408
 C         -7.3247334001       -0.2617024200       -0.0170435100
 H         -8.0673852500       -0.7763966904       -0.6302625798
 H         -7.7602718601       -0.1629511695        0.9770730100
 C         -6.0937510900       -1.1776651698        0.0475262006
 H         -6.2491473499       -1.9301192294        0.8281220309
 H         -5.9971153498       -1.7251259503       -0.8954486692
 H         -5.1453829405        2.8656618107        0.7578820685
 H         -6.2242367406        3.1738130712        2.1146144883
 H         -4.8997215105        1.4482095818        2.9236037693
 H         -6.2740425903        0.5143880913        2.3103830597
 O         -3.2338386103        0.9617595512        1.2913803596
 C         -2.1529883502        0.5302646510        0.5359351399
 O         -1.0890263803        1.1160167212        0.8055524997
 O         -3.8621229698       -2.0303232902       -1.3617448789
 C         -1.2378006999       -1.0166911198       -1.2534824192
 C         -0.0504889699       -1.3333086992       -0.3805212690
 C         -0.1206004598       -2.4298382988        0.4739032015
 C          0.9368624102       -2.7470036683        1.3047664718
 C          2.0848699201       -1.9745080481        1.3067976414
 C          2.1637407200       -0.8762202485        0.4616021309
 C          1.1051453400       -0.5692046391       -0.3846564693
 H          1.1697776099        0.2973200606       -1.0246082298
 N          3.3138694999       -0.0625287684        0.4797112105
 S          4.8122900500       -0.8320389782        0.3670402410
 O          4.8317241002       -1.7220958388       -0.7741818985
 O          5.1182883600       -1.4373301275        1.6385873913
 C          5.8871743898        0.5612482718        0.0878063203
 C          6.3080276199        0.8517373012       -1.1958157398
 C          7.1254781697        1.9524078812       -1.3999569803
 C          7.5025206596        2.7411729318       -0.3236366807
 C          7.0719468195        2.4364378624        0.9592333995
 C          6.2560363097        1.3365861224        1.1705820400
 H          5.9045482696        1.0568568428        2.1498594401
 H          7.3693275694        3.0508357228        1.7936869492
 H          8.1383930795        3.5972921818       -0.4851431111
 H          7.4645767497        2.1901320007       -2.3953590604
 H          5.9969464000        0.2060905507       -2.0014287395
 H          3.2500295598        0.6842512013       -0.1992956899
 H          2.9176609201       -2.2103762977        1.9491468216
 H          0.8682455102       -3.6019185279        1.9610408422
 H         -1.0208977697       -3.0296156889        0.4813861518
 H         -1.6268932298       -1.9694281501       -1.6491818988
 C         -0.8857199299       -0.1635888204       -2.4627781497
 C         -1.9527711000        0.5831897191       -3.2045106501
 C         -0.9048328801        1.3344928796       -2.4423855504
 H         -0.1463700902        1.8608767294       -3.0038870007
 H         -1.1834895703        1.8230759300       -1.5222132207
 H         -1.9181118799        0.5971664485       -4.2833924501
 H         -2.9537226600        0.5500232191       -2.7995190501
 H         -0.1144171699       -0.6305744206       -3.0686592094
