  62
        -98.93952642
 C         -1.8494892596       -1.5159572897        0.3369891801
 C         -2.0423726493       -0.4565559198        1.2623488703
 C         -2.9955163591        0.5896719705        0.8740472505
 C         -3.6381978992        0.4972620308       -0.3041051395
 C         -4.6895990189        1.4409551412       -0.8222226293
 C         -4.1289021187        2.6771489411       -1.5377891892
 C         -3.4911657884        3.7196347508       -0.6194115090
 H         -3.3269896882        4.6182178409       -1.2174536089
 H         -4.1927155683        3.9792237509        0.1741619610
 C         -2.1541524584        3.2842006504       -0.0038994392
 H         -1.7533407387        2.4376452104       -0.5675514293
 H         -1.4275381082        4.0949680102       -0.0967412891
 C         -2.2299807984        2.9093360602        1.4758479708
 H         -1.2276509685        2.6235629899        1.8007065907
 H         -2.5330660882        3.7835305402        2.0559666809
 C         -3.1915847387        1.7557339104        1.7961628806
 H         -4.2228986386        2.1053505407        1.7453795408
 H         -2.9891638187        1.4118646302        2.8133488906
 H         -3.3985720088        2.3514929510       -2.2827966193
 H         -4.9567165686        3.1501029114       -2.0711899190
 H         -5.3336050188        1.7568881212       -0.0010028192
 H         -5.2896829991        0.8729483814       -1.5366915794
 O         -3.4085200795       -0.5161408991       -1.1776509097
 C         -2.4840633197       -1.5239661194       -0.9068607799
 O         -2.3450258000       -2.3256057593       -1.8478643800
 O         -1.4500434592       -0.3969942501        2.3716386502
 C         -0.8661825399       -2.6010159300        0.7436413699
 C          0.5527891202       -2.1990612503        0.4226496999
 C          1.6059613402       -2.5290665007        1.2685903597
 C          2.9010207403       -2.1411601110        0.9702988297
 C          3.1656475004       -1.3729060409       -0.1490987702
 C          2.1134242304       -1.0010622705       -0.9760900501
 C          0.8266993803       -1.4448656002       -0.7079944300
 H          0.0195778404       -1.1734014599       -1.3756437900
 N          2.3526197006       -0.1005317704       -2.0308030399
 S          3.0664477810        1.3588253293       -1.5756321098
 O          2.3428927212        2.3846582996       -2.2959222696
 O          4.4806369110        1.2886950990       -1.8519576299
 C          2.8259187511        1.5024610691        0.1897221603
 C          1.5533951611        1.3810639694        0.7137642603
 C          1.3938917312        1.3572120092        2.0895711303
 C          2.4991528213        1.4991390988        2.9147902703
 C          3.7647155513        1.6643965386        2.3746538602
 C          3.9343895912        1.6473734187        0.9996490702
 H          4.9041069412        1.7292760086        0.5362137302
 H          4.6208781014        1.7827500783        3.0189368802
 H          2.3673468513        1.4743403887        3.9848423403
 H          0.4131977612        1.1843217494        2.5065186404
 H          0.7028228711        1.2827302997        0.0568390104
 H          1.5270190006        0.0854047199       -2.5832175999
 H          4.1610067405       -1.0300295411       -0.3830654302
 H          3.7097740602       -2.4195307413        1.6276211596
 H          1.4029094901       -3.0774220608        2.1760261797
 H         -0.9413905298       -2.6593612902        1.8414213099
 C         -1.2206375802       -3.9720781499        0.1860760197
 C         -0.4880596105       -4.5968927599       -0.9594306104
 C         -0.3303781505       -5.1563366301        0.4204309395
 H         -0.7918834908       -6.1052163600        0.6479893094
 H          0.6122839595       -4.9914768004        0.9181211194
 H         -1.0664556506       -5.1428333996       -1.6886248705
 H          0.3383611696       -4.0507083100       -1.3879456604
 H         -2.2894310203       -4.1562960096        0.2257054597
