  62
        -98.94351729
 C          1.0581051797        0.7529914299        0.9256932602
 C          1.6042116498        0.7332779802       -0.3823592998
 C          2.2634660903       -0.5185518995       -0.7791308899
 C          2.2249423107       -1.5875317996        0.0338578900
 C          2.8148594813       -2.9425342493       -0.2495513700
 C          4.3117283313       -3.0524258787        0.0724707800
 C          5.2425661411       -2.3187042783       -0.8937315799
 H          6.2578228512       -2.6587861979       -0.6802810098
 H          5.0078630313       -2.6146792783       -1.9166894099
 C          5.1998486505       -0.7887106683       -0.7766057197
 H          6.2186723103       -0.3952671279       -0.7657853296
 H          4.7379935203       -0.5087544685        0.1729459403
 C          4.4554143202       -0.0874877085       -1.9130693897
 H          4.4549118198        0.9869516215       -1.7121765996
 H          4.9833463004       -0.2528749982       -2.8548620697
 C          2.9986743004       -0.5384872291       -2.0843399498
 H          2.4932673102        0.1593248408       -2.7570058598
 H          2.9592847409       -1.5335984790       -2.5279740999
 H          4.5703266617       -4.1136777286        0.0563217000
 H          4.4776931711       -2.6848595387        1.0877516001
 H          2.2745670415       -3.6552779596        0.3777594299
 H          2.6423964915       -3.2029546893       -1.2946583401
 O          1.5989290407       -1.5618521599        1.2411592500
 C          1.0166916902       -0.3960411902        1.7176431101
 O          0.4886775601       -0.5165332805        2.8414148100
 H         -1.5127037401        0.4592829089        0.3823436700
 C         -1.5596926705        1.4544389889       -0.0349779799
 C         -0.6718783209        2.4186982492        0.4263472702
 C         -0.7420595014        3.6971155093       -0.1077209197
 C         -1.6630595115        3.9836675090       -1.1015358297
 C         -2.5093160910        3.0069712587       -1.5934151599
 C         -2.4496326805        1.7243996687       -1.0585097000
 N         -3.2880071801        0.6982863583       -1.5196770801
 S         -2.7388984195       -0.8830528814       -1.5396162102
 O         -1.3263096694       -0.9754498808       -1.8262418101
 O         -3.6199801291       -1.5482744817       -2.4779949103
 C         -3.0892014093       -1.4838015117        0.0989346197
 C         -2.0963958191       -2.1136573214        0.8219830697
 C         -2.3812652990       -2.5738390516        2.0974684497
 C         -3.6528952991       -2.4021104821        2.6219980896
 C         -4.6434396593       -1.7766572625        1.8794267796
 C         -4.3623426094       -1.3110419823        0.6052159697
 H         -5.1029861796       -0.8180751125       -0.0018946503
 H         -5.6307630694       -1.6467007329        2.2924766696
 H         -3.8691856190       -2.7571092923        3.6172429196
 H         -1.6027118388       -3.0448698313        2.6760713397
 H         -1.1140904090       -2.2146100109        0.3847384898
 H         -3.8324531402        0.9229811782       -2.3395482701
 H         -3.2027124711        3.2276435285       -2.3906888899
 H         -1.7059641118        4.9792412890       -1.5169712197
 H         -0.0586028017        4.4594609295        0.2285672504
 C          0.3256094792        1.9714978596        1.4664816802
 H         -0.2426452707        1.5942417993        2.3332219001
 C          1.2205554787        3.0838462699        1.9884791604
 C          2.5977791588        2.7838121004        2.4992724004
 C          2.4214646586        3.5765137604        1.2408873905
 H          2.6415916981        4.6338888405        1.2696837406
 H          2.6484429788        3.1085749606        0.2968117604
 H          2.9475957192        1.7646769205        2.4161633603
 H          2.9395828086        3.2923151105        3.3882764305
 H          0.6563348884        3.8270917896        2.5435147204
 O          1.5600975495        1.7020011303       -1.1833102597
