  62
        -98.93687592
 C         -2.1288236553       -1.2871415178       -0.0150696497
 C         -2.9490390597       -0.6494491502        0.9415123184
 C         -3.7760964926        0.4742658000        0.4637566722
 C         -3.6685043968        0.8625220334       -0.8198423805
 C         -4.4015002423        1.9676179166       -1.5381038672
 C         -4.5543963253        3.3005867967       -0.7893076087
 C         -5.9877559535        3.5835114747       -0.3353055525
 H         -6.1102988985        4.6627660658       -0.2204232100
 H         -6.6708978184        3.2602813580       -1.1234160199
 C         -6.3934994179        2.9296955277        0.9844848673
 H         -5.8847923172        3.4342422688        1.8088390975
 H         -7.4658004979        3.0912701282        1.1168587208
 C         -6.1074370065        1.4302774781        1.0863121917
 H         -6.7723700547        1.0142639209        1.8460709452
 H         -6.3452714420        0.9315467551        0.1474402725
 C         -4.6641601906        1.1066388946        1.5007675778
 H         -4.6707879983        0.3928911801        2.3305037166
 H         -4.1750232444        2.0069337586        1.8842404423
 H         -3.8732570827        3.3301021570        0.0599206691
 H         -4.2532017765        4.0990835415       -1.4695439190
 H         -3.8389193732        2.1240347914       -2.4615154718
 H         -5.3853207793        1.5939487754       -1.8332845642
 O         -2.8354996304        0.2374124423       -1.7017119496
 C         -2.0552068347       -0.8463262245       -1.3356792619
 O         -1.3568971173       -1.3129356606       -2.2547423864
 O         -2.9908769747       -1.0018832519        2.1524207940
 C         -1.2691802874       -2.4631593950        0.4117935839
 C          0.1884080621       -2.1428706597        0.1875524586
 C          1.0728570247       -2.9973510695       -0.4564927752
 C          2.3933113256       -2.6262585725       -0.6449431061
 C          2.8620053408       -1.4074811097       -0.1911763723
 C          1.9874599328       -0.5473400871        0.4604773526
 C          0.6670266674       -0.9226049924        0.6495828601
 H         -0.0146943507       -0.2482793891        1.1544725570
 N          2.4561519589        0.6891163770        0.9412585001
 S          3.2916596673        1.6818979017       -0.1265483002
 O          3.1161325212        3.0213550441        0.3930308747
 O          2.8802625423        1.4638144314       -1.4940003356
 C          4.9911928800        1.1961943400        0.0897859058
 C          5.5202852899        1.2259223204        1.3653627175
 C          6.8432037991        0.8570051215        1.5493582004
 C          7.6111018107        0.4702857635        0.4608983554
 C          7.0661889203        0.4495692907       -0.8137951442
 C          5.7428171955        0.8161003635       -1.0046970999
 H          5.2735670742        0.8090515722       -1.9757731126
 H          7.6643889351        0.1491816251       -1.6589796302
 H          8.6405191276        0.1834892329        0.6068192613
 H          7.2704235689        0.8718792968        2.5390848467
 H          4.8906296160        1.5357823665        2.1824868007
 H          1.7522599132        1.2206617637        1.4334842020
 H          3.8873121312       -1.1126649660       -0.3435059901
 H          3.0674046130       -3.2970318105       -1.1553474247
 H          0.7265700110       -3.9495258111       -0.8228155412
 H         -1.4337974017       -2.5681223662        1.4946104481
 C         -1.7282336715       -3.7311661404       -0.2762691438
 C         -1.5238310560       -5.0627725236        0.3804728392
 C         -2.8994020506       -4.4762206533        0.2881701383
 H         -3.6070242423       -4.9189232652       -0.3965858756
 H         -3.3509077169       -4.0813282873        1.1866070679
 H         -1.2885733280       -5.9132892035       -0.2412496914
 H         -1.0422978821       -5.0744552115        1.3464177553
 H         -1.6466223631       -3.6706986538       -1.3557958334
