  62
        -98.93318788
 C          2.2758968396        0.7227856262        0.1410930348
 C          2.4684441788       -0.6557989089        0.4108244733
 C          3.6514961379       -1.2959233069       -0.1889892045
 C          4.4676291437       -0.5577589340       -0.9608055828
 C          5.7450880866       -0.9902520167       -1.6259786212
 C          6.9571306534       -0.6746702381       -0.7331173323
 C          7.3108140648       -1.7612571886        0.2815316844
 H          7.7315201987       -2.6205915216       -0.2447124911
 H          8.0926914376       -1.3586387800        0.9294848275
 C          6.1499618318       -2.2441691682        1.1549685578
 H          5.5584256548       -1.3892480246        1.4877252775
 H          6.5728795546       -2.7104134231        2.0470057063
 C          5.2433400281       -3.2610989014        0.4455595795
 H          5.1220824538       -4.1420134759        1.0794309482
 H          5.7340396484       -3.6015188868       -0.4659800271
 C          3.8304456882       -2.7587428395        0.1136939907
 H          3.4318521350       -3.3396179986       -0.7250527496
 H          3.1670626630       -2.9480636419        0.9637437626
 H          7.8284174206       -0.5114122816       -1.3705012336
 H          6.7526330233        0.2638764400       -0.2117792086
 H          5.7084505100       -2.0446411060       -1.8828407874
 H          5.8290472946       -0.4060326176       -2.5446230396
 O          4.2454900053        0.7619253951       -1.1997843420
 C          3.1630112845        1.4386964549       -0.6631486444
 O          3.1268840328        2.6434928049       -0.9780821124
 O          1.6871716434       -1.3271173700        1.1397004131
 C          1.0566306684        1.3835867291        0.7620407925
 C         -0.0461922612        1.5517589228       -0.2564471221
 C          0.0096532622        2.5302089592       -1.2441471757
 C         -1.0245506027        2.6659673721       -2.1518194347
 C         -2.1377529146        1.8471698248       -2.0837331753
 C         -2.1973052574        0.8580161283       -1.1090516425
 C         -1.1511075962        0.7131197840       -0.2086260694
 H         -1.2070622889       -0.0655912155        0.5388447546
 N         -3.3015091194       -0.0057699951       -1.0319682158
 S         -3.8211429442       -0.5067892210        0.4948000262
 O         -3.7730832178        0.6028976458        1.4201484851
 O         -3.0895564359       -1.6893061148        0.8733692368
 C         -5.5149133517       -0.9359684032        0.1364608112
 C         -5.7942556163       -2.1944712547       -0.3618283714
 C         -7.1067492368       -2.5172583736       -0.6682521986
 C         -8.1120841099       -1.5816572085       -0.4735936010
 C         -7.8167186815       -0.3232932989        0.0289604890
 C         -6.5061034522        0.0064508986        0.3366073975
 H         -6.2308816509        0.9682322530        0.7387250894
 H         -8.6007695309        0.4005299202        0.1825051205
 H         -9.1326848401       -1.8361235081       -0.7120711576
 H         -7.3404055829       -3.4957281585       -1.0558530591
 H         -4.9811462222       -2.8906124878       -0.4868824775
 H         -4.0739734074        0.2908629017       -1.6127395675
 H         -2.9502810465        1.9652672399       -2.7846274152
 H         -0.9683991088        3.4280716419       -2.9144616979
 H          0.8784373748        3.1661486781       -1.3057546426
 H          0.6970562878        0.6688737032        1.5156308111
 C          1.3701996256        2.6936678211        1.4581710994
 C          0.3698516868        3.2498621829        2.4252557290
 C          1.6674152286        2.6917060802        2.9260782886
 H          2.4133295033        3.3763773694        3.3010861409
 H          1.6491889980        1.7410524172        3.4394518515
 H          0.2232496588        4.3185013534        2.4575915323
 H         -0.5306358119        2.6770179097        2.5941417158
 H          1.9198396606        3.3924588253        0.8415048575
