  62
        -98.94309484
 C         -2.5568620993       -0.1953600533        0.5367331247
 C         -2.2121252688        0.3483764808       -0.7261606385
 C         -2.0100799658        1.8052940581       -0.7653640163
 C         -2.1178499599        2.5205101546        0.3676201577
 C         -1.9122981198        4.0035746562        0.4761419452
 C         -0.4595805511        4.3501903297        0.8267820177
 C          0.5770441918        3.6625858083       -0.0622085913
 H          1.5594171888        4.0339937570        0.2399718454
 H          0.5733378805        2.5873724670        0.1353664768
 C          0.3823112920        3.8955049293       -1.5669643513
 H          1.3549134488        4.1130755949       -2.0129694066
 H         -0.2535289993        4.7670789894       -1.7305661015
 C         -0.1923458349        2.6919719470       -2.3170112124
 H          0.3622691781        1.7937962222       -2.0343925912
 H         -0.0444869239        2.8531577614       -3.3885541155
 C         -1.6862883774        2.4213392007       -2.0970885247
 H         -2.2558388358        3.3421543853       -2.2446652448
 H         -2.0058947032        1.6934008101       -2.8486622937
 H         -0.3395737270        5.4333366585        0.7562320369
 H         -0.2715722107        4.0526286631        1.8613088097
 H         -2.1903886002        4.4707451572       -0.4667780135
 H         -2.5654325936        4.3809358688        1.2653742981
 O         -2.4079026992        1.9591548849        1.5708261410
 C         -2.6096735740        0.5941156933        1.6867227701
 O         -2.8332435560        0.2091802376        2.8538077381
 O         -2.0962402422       -0.3332421061       -1.7772811949
 C         -2.7484272930       -1.6908204179        0.7356003089
 C         -1.6128784003       -2.4224460310        0.0626818367
 C         -1.7747861681       -3.4385950722       -0.8687368783
 C         -0.6679742589       -4.0238475578       -1.4600244560
 C          0.6113366528       -3.6010013278       -1.1511525073
 C          0.7830249716       -2.5908397985       -0.2107728640
 C         -0.3236473506       -2.0313302342        0.4025742487
 H         -0.1825229513       -1.2442101312        1.1309314044
 N          2.0668921598       -2.1336576151        0.1430598099
 S          2.2257903079       -0.4782234717        0.4514625941
 O          1.8554552788       -0.2241268835        1.8231080185
 O          1.5331333847        0.2895045936       -0.5555538944
 C          3.9898714662       -0.2861285467        0.2747377175
 C          4.5034554253        0.3573227645       -0.8346160211
 C          5.8789539886        0.4743922013       -0.9640720125
 C          6.7116436151       -0.0544921220        0.0102887834
 C          6.1808106746       -0.6972758280        1.1192621472
 C          4.8070870589       -0.8153718757        1.2561982593
 H          4.3479608499       -1.2964633688        2.1040707604
 H          6.8311135742       -1.1050466412        1.8761910211
 H          7.7812567570        0.0369189335       -0.0934503987
 H          6.2938027747        0.9766994177       -1.8230042206
 H          3.8157868984        0.7553113312       -1.5635821119
 H          2.7802463702       -2.4526971423       -0.4992283968
 H          1.4702107957       -4.0408508912       -1.6352031531
 H         -0.8060023394       -4.8075097733       -2.1896590695
 H         -2.7652496138       -3.7520645546       -1.1550711946
 H         -2.6427203398       -1.8435737670        1.8235044565
 C         -4.1259147234       -2.2137467281        0.3581822382
 C         -5.3238756286       -1.3128195834        0.3757557270
 C         -4.8034876720       -1.8421308229       -0.9250716478
 H         -5.3815655912       -2.5989476589       -1.4350713266
 H         -4.2814170556       -1.1688833927       -1.5856422948
 H         -6.2538910079       -1.7048600655        0.7593554355
 H         -5.1599586526       -0.2701357875        0.6077563198
 H         -4.2848767896       -3.2257320370        0.7182817581
