  62
        -98.94518256
 C         -2.2680729556       -0.7297455376       -0.0259608909
 C         -3.2696276930       -0.6719020037        0.9763764914
 C         -4.1458717163        0.5032274681        0.9444028366
 C         -3.9381610472        1.4642174076        0.0260602164
 C         -4.7240625262        2.7397655987       -0.1136304575
 C         -6.0214874125        2.5908211121       -0.9203234898
 C         -7.1485440111        1.8414934903       -0.2083724990
 H         -7.3119434337        2.2833023183        0.7750210604
 H         -8.0572232657        2.0009488249       -0.7922283355
 C         -6.9127186778        0.3314630215       -0.0646184462
 H         -7.8198519767       -0.2073166716       -0.3472425190
 H         -6.1264499093        0.0185770586       -0.7554572190
 C         -6.5386966633       -0.1201291836        1.3471089636
 H         -6.3576276043       -1.1976978847        1.3253805222
 H         -7.3739368874        0.0675622738        2.0253057984
 C         -5.2861928511        0.5595115376        1.9157602235
 H         -5.5070287268        1.5924843549        2.1835976848
 H         -4.9818447926        0.0209168630        2.8164052286
 H         -5.7902264417        2.0912596794       -1.8639698933
 H         -6.3748780804        3.5974460028       -1.1555786989
 H         -4.0747663099        3.4483956326       -0.6325757617
 H         -4.9525201892        3.1388241326        0.8751147125
 O         -2.9429675469        1.3902566341       -0.8967950412
 C         -2.0966158571        0.2915953982       -0.9603185649
 O         -1.2586897601        0.3550304770       -1.8815014052
 O         -3.4219339947       -1.5607995418        1.8552849508
 C         -1.3388649968       -1.9329617049       -0.0344278245
 C          0.0373794237       -1.4681216940        0.3715258326
 C          0.3272643333       -1.3021421790        1.7232979135
 C          1.5562225684       -0.8157471792        2.1264493011
 C          2.5189644899       -0.4749257416        1.1916396867
 C          2.2322535865       -0.6184369119       -0.1585434161
 C          1.0047885745       -1.1293500874       -0.5610113252
 H          0.7916838237       -1.2236169716       -1.6139156164
 N          3.1971156513       -0.2680344204       -1.1180601405
 S          4.0271981792        1.1780436404       -0.9309555067
 O          3.2437305461        2.1663491541       -0.2259522429
 O          4.4681178665        1.5355774662       -2.2619747948
 C          5.4494103391        0.7180981549        0.0396269029
 C          6.2085245496       -0.3554713987       -0.3836749505
 C          7.3230769805       -0.7196462783        0.3546708173
 C          7.6607953593       -0.0062627025        1.4951848118
 C          6.8913817812        1.0718429039        1.9046043631
 C          5.7742368406        1.4405006722        1.1710191459
 H          5.1423585221        2.2671276030        1.4551592750
 H          7.1551438388        1.6259353428        2.7911078003
 H          8.5284148139       -0.2922409229        2.0685418469
 H          7.9235180057       -1.5577198376        0.0394577729
 H          5.9132791317       -0.8823782100       -1.2754670098
 H          2.8699241189       -0.3690638372       -2.0684132240
 H          3.4748215164       -0.0829921296        1.4983673057
 H          1.7684333419       -0.6967877277        3.1781007020
 H         -0.4318553665       -1.5474420098        2.4528856883
 H         -1.7202476339       -2.5964657065        0.7533668915
 C         -1.3733424159       -2.6748196660       -1.3539273779
 C         -0.8013172126       -4.0579671004       -1.4308220753
 C         -2.2839022862       -3.8547383638       -1.5062642054
 H         -2.7787037752       -4.0032777857       -2.4544570708
 H         -2.8832423149       -4.1365248254       -0.6530349482
 H         -0.2758504217       -4.3502478603       -2.3270486884
 H         -0.3925306292       -4.4766554478       -0.5238379749
 H         -1.2578567110       -2.0280828189       -2.2152753464
