  62
        -98.94336003
 C         -1.2274541414       -0.6479330047        0.5918318656
 C         -1.9436132277       -0.4844436244       -0.6194871070
 C         -2.9454678133        0.5909700580       -0.6249712874
 C         -3.0594125281        1.4112034064        0.4339760140
 C         -4.0177430775        2.5636927380        0.5653272817
 C         -5.4213027633        2.1571579878        1.0356575740
 C         -6.2694416054        1.4228816425       -0.0037468963
 H         -7.2909955571        1.3936492892        0.3804108190
 H         -6.2858302575        1.9993733327       -0.9291860061
 C         -5.8112863115       -0.0125531269       -0.2971435019
 H         -5.1495415345       -0.3537815565        0.5022799601
 H         -6.6775405023       -0.6777575896       -0.3010090934
 C         -5.0986851419       -0.1889192261       -1.6381336857
 H         -4.7881295867       -1.2331077783       -1.7263399866
 H         -5.7933304016        0.0254138569       -2.4532003823
 C         -3.8545920490        0.6924552230       -1.8123065121
 H         -4.1467701821        1.7288306147       -1.9812523419
 H         -3.2996186689        0.3391010641       -2.6850274460
 H         -5.3236244259        1.5378480744        1.9304111641
 H         -5.9459116524        3.0719925773        1.3208326506
 H         -4.0884910112        3.0913398056       -0.3864676422
 H         -3.5874673887        3.2421933071        1.3054444986
 O         -2.2699968523        1.2935517241        1.5352623597
 C         -1.3477856145        0.2650991149        1.6420857426
 O         -0.6923248986        0.2765331772        2.7044921437
 O         -1.7693462299       -1.1896697342       -1.6461670848
 C         -0.1837629792       -1.7379609215        0.7599339626
 C          0.7711399571       -1.7171000163       -0.4089035879
 C          1.1517249852       -2.8386331795       -1.1331584281
 C          2.0637751206       -2.7223381084       -2.1685216227
 C          2.6326176352       -1.5024041516       -2.4857504469
 C          2.2549065175       -0.3732699116       -1.7674317960
 C          1.3285708745       -0.4905381720       -0.7458802745
 H          1.0145621941        0.3966383282       -0.2168383214
 N          2.8041538066        0.8878264326       -2.0456327815
 S          3.0720447095        1.9552404643       -0.7883487574
 O          1.8359744166        2.5736939356       -0.3765639125
 O          4.0854232378        2.8559778407       -1.2963476094
 C          3.7563646995        0.9573287485        0.5237878469
 C          3.0455123970        0.7293587839        1.6840121549
 C          3.5960165201       -0.0920643527        2.6558630769
 C          4.8405825323       -0.6670149433        2.4534385556
 C          5.5475121989       -0.4205163252        1.2859711740
 C          5.0013485056        0.3966331829        0.3105617654
 H          5.5247945934        0.6202531906       -0.6046960326
 H          6.5178718874       -0.8644336132        1.1332341360
 H          5.2611333748       -1.3082033954        3.2118755723
 H          3.0391159424       -0.2795847256        3.5603573509
 H          2.0753620381        1.1833863425        1.8172912451
 H          3.5562461842        0.8910837440       -2.7184174190
 H          3.3490392290       -1.4177308070       -3.2882340148
 H          2.3428855788       -3.5991359298       -2.7327595419
 H          0.7202541575       -3.7989742653       -0.9042068104
 H          0.3936571426       -1.4338117041        1.6496280039
 C         -0.7503007132       -3.1166204286        1.0666365297
 C         -2.1279694792       -3.2803316118        1.6349231708
 C         -1.8321964084       -3.7447270267        0.2421905206
 H         -1.7833546213       -4.8083320056        0.0590000644
 H         -2.2202900002       -3.1741499931       -0.5858686899
 H         -2.2806218558       -4.0199335071        2.4067677144
 H         -2.7263599505       -2.3890060199        1.7600154067
 H          0.0084308531       -3.7855729975        1.4608052813
