  62
        -98.93878340
 C          1.8645827593        0.9048164991       -0.2366964104
 C          3.0045202195        1.0945152394        0.5823676794
 C          4.2770484393        0.5091472490        0.1195748794
 C          4.2871721491       -0.1776630714       -1.0379039503
 C          5.4390365689       -0.8947834118       -1.6907810402
 C          5.7768566189       -2.2265534416       -1.0024213697
 C          5.8161992991       -2.1691895610        0.5222550203
 H          4.8461607492       -1.8333097907        0.8933796203
 H          5.9670066691       -3.1881939008        0.8884796607
 C          6.9185424293       -1.2924325108        1.1118936097
 H          6.8943319395       -1.4281463604        2.1961968298
 H          7.8880472092       -1.6473686411        0.7552752897
 C          6.8098540294        0.2060699391        0.8201806791
 H          7.1499758093        0.4376046686       -0.1856396011
 H          7.4915908296        0.7204785493        1.5037239588
 C          5.4248671095        0.7997372593        1.0562435191
 H          5.0790123197        0.5178179198        2.0572661593
 H          5.5131205096        1.8925701793        1.0805957886
 H          5.0165607087       -2.9576565616       -1.2885571893
 H          6.7391659888       -2.5754905718       -1.3809944597
 H          5.1350409387       -1.1031497622       -2.7190711701
 H          6.3101090589       -0.2473723919       -1.7284239506
 O          3.1627310589       -0.3448259416       -1.7896227601
 C          1.9358614990        0.1780922386       -1.4242346901
 O          1.0224087189       -0.0685260316       -2.2365061598
 H         -1.1618825409       -0.0887212209       -1.1702042594
 C         -1.1674329008       -0.3169772505       -0.1158086393
 C         -0.3442515206        0.3956429098        0.7440642302
 C         -0.3417848104        0.0583826203        2.0936901804
 C         -1.1433546204       -0.9640396494        2.5694254309
 C         -1.9601038406       -1.6754309897        1.7080209414
 C         -1.9602791308       -1.3525493702        0.3577131912
 N         -2.7925681510       -2.0737977305       -0.5271996483
 S         -4.4383412910       -1.8947006902       -0.2686202581
 O         -4.7978076808       -2.5735072297        0.9504622022
 O         -5.0814056512       -2.3626622407       -1.4752622278
 C         -4.6659064008       -0.1362256501       -0.0808120388
 C         -4.5759681505        0.4275015904        1.1760307509
 C         -4.6652594803        1.8047514704        1.2982881404
 C         -4.8411307304        2.5896476200        0.1693544101
 C         -4.9325948307        2.0073374395       -1.0856384597
 C         -4.8370657509        0.6314408594       -1.2154004191
 H         -4.9055032911        0.1388933190       -2.1723477989
 H         -5.0732041308        2.6198131191       -1.9620911899
 H         -4.9075065403        3.6617442400        0.2679092096
 H         -4.5943082401        2.2603252808        2.2727886602
 H         -4.4448157104       -0.2170504293        2.0294431512
 H         -2.5802152912       -1.8863799609       -1.4973547884
 H         -2.5997020606       -2.4694031194        2.0587386518
 H         -1.1316613703       -1.2113719989        3.6201345010
 H          0.3056868598        0.6025168505        2.7665534800
 C          0.5503118895        1.5010770395        0.2400589596
 H          0.8184498397        2.1329915898        1.0970177193
 C         -0.1218846506        2.3632201391       -0.8094550306
 C         -1.2731890505        3.2321159794       -0.4026712708
 C          0.0448317495        3.8509257791       -0.7564417913
 H          0.1293300394        4.3918926387       -1.6870429115
 H          0.6492599097        4.2586301494        0.0404795784
 H         -2.0986726606        3.3468986592       -1.0877454607
 H         -1.5647242103        3.2142255899        0.6363476893
 H         -0.1555958608        1.9059235787       -1.7899780404
 O          2.9670287097        1.7335003698        1.6680349691
