  62
        -98.93464893
 C          2.2812551297        0.3897444586        0.1476855389
 C          3.5079227897        0.8234632386        0.7004736088
 C          4.6714585096       -0.0588746216        0.5037317990
 C          4.5167462794       -1.2116448817       -0.1743511708
 C          5.4957665193       -2.3243875119       -0.4873527106
 C          6.9963742593       -2.1235242121       -0.2935703206
 C          7.6361478494       -1.1246848324       -1.2574009308
 H          8.6770268595       -0.9804728024       -0.9599051209
 H          7.6338179494       -1.5600040326       -2.2598714908
 C          6.9510945496        0.2366859977       -1.3461765611
 H          7.4987283297        0.8397074875       -2.0755855012
 H          5.9361883996        0.1129292278       -1.7296406511
 C          6.8948825897        1.0266589880       -0.0402968413
 H          6.5262670299        2.0282883880       -0.2775090115
 H          7.9009379398        1.1294801979        0.3709022487
 C          5.9781513797        0.4427954983        1.0483236789
 H          6.4831860896       -0.3359320316        1.6146444390
 H          5.7292312498        1.2472246385        1.7466253987
 H          7.2097991894       -1.8517491119        0.7358977693
 H          7.4650458392       -3.0959007622       -0.4676958204
 H          5.1782710592       -3.1761832318        0.1242307896
 H          5.3031867992       -2.6055281021       -1.5275908405
 O          3.3073156694       -1.5911804417       -0.6837836907
 C          2.1693440195       -0.8139005815       -0.5450200009
 O          1.1514894794       -1.2993705215       -1.0736467807
 O          3.6270446199        1.8995452587        1.3464462086
 C          1.0470114798        1.2555026488        0.3243002787
 C         -0.0161657503        0.4786339591        1.0601596789
 C          0.2812700996       -0.0191592206        2.3271393390
 C         -0.6539887105       -0.7444896704        3.0381634192
 C         -1.9084715505       -0.9839290703        2.5046325892
 C         -2.2131768405       -0.4980222505        1.2389336091
 C         -1.2712422204        0.2340422492        0.5281125490
 H         -1.5355730903        0.5995522890       -0.4495191811
 N         -3.4645006605       -0.7614326105        0.6600774792
 S         -4.1502447604        0.3618597694       -0.3928806810
 O         -3.5586297704        0.2169057091       -1.6988923310
 O         -4.0996523202        1.6851149395        0.1882576687
 C         -5.8308176604       -0.2344039704       -0.4298423909
 C         -6.8053739403        0.4130414399        0.3054069490
 C         -8.1005037504       -0.0809279699        0.2833259691
 C         -8.3964463706       -1.2090591300       -0.4666274007
 C         -7.4074962407       -1.8480115703       -1.2002671206
 C         -6.1113031006       -1.3584661905       -1.1841265207
 H         -5.3122650107       -1.8153489107       -1.7447665906
 H         -7.6416524708       -2.7234435404       -1.7843006004
 H         -9.4046932106       -1.5917753899       -0.4821962106
 H         -8.8721421503        0.4151347703        0.8496469190
 H         -6.5297140602        1.2903281000        0.8681433988
 H         -4.1408133105       -1.1141709002        1.3231948293
 H         -2.6405636406       -1.5511167101        3.0590621993
 H         -0.4086233705       -1.1229187302        4.0191866592
 H          1.2616570097        0.1707376193        2.7430929090
 H          1.3650365699        2.0911463689        0.9655581286
 C          0.5838447698        1.8139980886       -1.0037755914
 C         -0.2545006500        3.0556601887       -1.0385376316
 C          1.1689518500        3.0987470885       -1.5048667416
 H          1.3632650500        3.1987157182       -2.5621752317
 H          1.8975195301        3.5904104385       -0.8769082817
 H         -1.0459490500        3.1214407387       -1.7703701116
 H         -0.4971307799        3.5191580090       -0.0939866917
 H          0.3758264197        1.0408063385       -1.7359276112
