  62
        -98.94726464
 C          0.9723601814        1.5319652673       -0.8742317035
 C          2.2834409802        1.4835352993       -0.3333274405
 C          3.0547497163        0.2653094746       -0.5937588682
 C          2.5064547169       -0.7238024107       -1.3210653007
 C          3.1432894229       -2.0480556425       -1.6430403593
 C          2.9838821958       -3.0834150774       -0.5207743257
 C          3.8770902217       -2.8569282175        0.6996735813
 H          3.8512153971       -3.7756278137        1.2893885064
 H          4.9076182264       -2.7047358880        0.3756095718
 C          3.4352586778       -1.6900471100        1.5943347402
 H          3.4724595177       -2.0030809101        2.6410098076
 H          2.3922552102       -1.4404126987        1.3809840751
 C          4.2946337793       -0.4310152193        1.4713102595
 H          3.8561224631        0.3418736246        2.1078835768
 H          5.3025436265       -0.6397759708        1.8386932554
 C          4.4021966177        0.1327036187        0.0488815674
 H          4.8407865766        1.1320143005        0.1107820036
 H          5.0519696020       -0.4981741456       -0.5575599914
 H          1.9395474207       -3.0944586098       -0.1964870197
 H          3.2166856136       -4.0649405090       -0.9411744214
 H          4.2016482648       -1.9084440895       -1.8651629112
 H          2.6459639652       -2.4264050487       -2.5388446271
 O          1.2719092590       -0.6204721638       -1.8716130802
 C          0.4574675300        0.4785444206       -1.6302974236
 O         -0.6675857692        0.3780241407       -2.1590648794
 O          2.7850578474        2.4230520318        0.3425897377
 C          0.1235925515        2.7246289706       -0.4649854926
 C         -0.5939110191        2.3803950115        0.8208319340
 C         -0.5620435853        3.2230921927        1.9251062817
 C         -1.1572924792        2.8423985722        3.1154649136
 C         -1.7559485065        1.6011988090        3.2402167453
 C         -1.7940165186        0.7537414449        2.1390667790
 C         -1.2564003663        1.1670261306        0.9312288187
 H         -1.3133046943        0.5075079021        0.0810442462
 N         -2.3528812755       -0.5310859193        2.2105842469
 S         -1.5967203710       -1.7754984849        1.3725434711
 O         -1.9784264498       -2.9738968370        2.0956279546
 O         -0.1744542190       -1.5548797928        1.2474373259
 C         -2.3874031295       -1.8206872300       -0.2195616547
 C         -1.6892913594       -2.3509497453       -1.2845256333
 C         -2.3159675479       -2.4491725984       -2.5158525143
 C         -3.6243521496       -2.0176371280       -2.6589837084
 C         -4.3130122266       -1.4885522680       -1.5784638994
 C         -3.6932361570       -1.3912642304       -0.3435196209
 H         -4.1960497663       -0.9780761521        0.5151879419
 H         -5.3292037126       -1.1473204485       -1.6954649072
 H         -4.1071882207       -2.0884369268       -3.6210577161
 H         -1.7749128054       -2.8498371438       -3.3580406855
 H         -0.6645568791       -2.6556573029       -1.1391598559
 H         -2.6436375536       -0.8255479868        3.1317299994
 H         -2.1794980446        1.2853914996        4.1813994217
 H         -1.1270922888        3.5059920654        3.9663560780
 H         -0.0462491090        4.1692233971        1.8556941517
 H          0.8341674051        3.5332042060       -0.2440559844
 C         -0.8502713551        3.2126095095       -1.5170993701
 C         -1.3228303908        4.6338183225       -1.4676924158
 C         -0.3850964206        4.1926701376       -2.5502669041
 H         -0.7618975766        4.0940751471       -3.5568471105
 H          0.6431022223        4.5205215942       -2.4998899013
 H         -2.3484149533        4.8427961931       -1.7296825917
 H         -0.9303596196        5.2670445092       -0.6866537210
 H         -1.5559237547        2.4553885471       -1.8318476666
