  62
        -98.94463226
 C         -1.9740026700       -0.7716207895        0.5687755600
 C         -1.9931311799       -0.0853025989       -0.6690296297
 C         -2.1317329297        1.3727102411       -0.5856940590
 C         -2.1582600496        1.9742243905        0.6169411213
 C         -2.2528203193        3.4558005204        0.8641243120
 C         -3.6853792792        4.0065895207        0.8302190422
 C         -4.3212066292        4.0832725914       -0.5584101777
 H         -5.2287914191        4.6822401416       -0.4615775375
 H         -3.6498918191        4.6138804517       -1.2341193475
 C         -4.6906215194        2.7210189518       -1.1617238184
 H         -4.7062195096        1.9655884014       -0.3728364987
 H         -5.6982535794        2.7690969422       -1.5803951184
 C         -3.7583827595        2.2488567322       -2.2775656286
 H         -4.0893788997        1.2604758924       -2.6058912590
 H         -3.8308096194        2.9293231426       -3.1287288183
 C         -2.2846099095        2.1397053917       -1.8639754886
 H         -1.7440116496        1.5930988020       -2.6406537189
 H         -1.8430833194        3.1314710316       -1.7669212982
 H         -4.3092199193        3.3927790005        1.4839371719
 H         -3.6553533491        5.0149249405        1.2493607427
 H         -1.8380755793        3.6298883399        1.8595934721
 H         -1.6369107192        3.9851900807        0.1363098022
 O         -2.0830535897        1.2818299300        1.7862543310
 C         -2.0015422499       -0.1012805500        1.7899044203
 O         -1.9624979400       -0.6115398006        2.9299851501
 O         -1.9058650500       -0.6598517084       -1.7860881999
 C         -1.8230508403       -2.2820802495        0.5894930993
 C         -0.5365800003       -2.6584682594       -0.1059001308
 C         -0.4333071805       -3.6898710890       -1.0297270013
 C          0.7746197095       -3.9480526289       -1.6551087014
 C          1.8937214896       -3.1841208292       -1.3820176411
 C          1.8053567098       -2.1637367896       -0.4406546306
 C          0.6021382098       -1.9234643597        0.1996714195
 H          0.5430432199       -1.1261225500        0.9276891499
 N          2.9296516799       -1.3850254400       -0.1126670602
 S          2.6903370702        0.2294576299        0.3206355605
 O          2.3238322402        0.2872199793        1.7148073006
 O          1.7941497303        0.8794288505       -0.6091805892
 C          4.3514626603        0.8482001697        0.1198707308
 C          4.6820985904        1.5681576202       -1.0122585288
 C          5.9868637205        2.0102626300       -1.1681046086
 C          6.9338675104        1.7231538494       -0.1967285487
 C          6.5866777803        1.0001907390        0.9351397209
 C          5.2839266102        0.5569527391        1.0979954207
 H          4.9636197201        0.0006405787        1.9634307304
 H          7.3246819702        0.7808679085        1.6897045608
 H          7.9483878905        2.0672849893       -0.3210308586
 H          6.2584071006        2.5754513004       -2.0450560284
 H          3.9098989504        1.7712521706       -1.7369755787
 H          3.6783052799       -1.4777026498       -0.7862244403
 H          2.8278949796       -3.3724155391       -1.8887734711
 H          0.8402208694       -4.7460007486       -2.3791609818
 H         -1.3010031106       -4.2815195987       -1.2714707816
 H         -1.7369586903       -2.5663356000        1.6491018092
 C         -3.0496343204       -2.9459414590       -0.0006954710
 C         -3.4754842806       -4.3036666392        0.4685827284
 C         -4.2712921304       -3.0939384092        0.8538111189
 H         -5.2393312904       -2.9440596488        0.3999731890
 H         -4.2067799203       -2.7387678597        1.8723852491
 H         -3.9023562307       -4.9871976588       -0.2496841819
 H         -2.8775339707       -4.7786460096        1.2315775682
 H         -3.1960708803       -2.6914824085       -1.0440850209
