  62
        -98.94403983
 C         -2.1997923016       -1.3816202044       -0.0988616176
 C         -2.5389092205       -0.3377515678       -0.9935528509
 C         -3.8814766442        0.2395888240       -0.8249938738
 C         -4.6995101364       -0.2469311574        0.1252226386
 C         -6.0650342863        0.2890224999        0.4410637726
 C         -5.9976047099        1.3711670497        1.5278676178
 C         -4.9425047793        2.4461639340        1.2659579327
 H         -3.9492451534        1.9938650315        1.3194002972
 H         -5.0079372587        3.1709513089        2.0803959570
 C         -5.0957318341        3.1730265252       -0.0774610139
 H         -4.9667691236        4.2447516024        0.0881921429
 H         -6.1038346652        3.0244962389       -0.4663414394
 C         -4.0764628789        2.7622724386       -1.1418904996
 H         -3.0673019890        2.8225576302       -0.7255704882
 H         -4.1343501336        3.4821049595       -1.9628820562
 C         -4.2674469214        1.3643814441       -1.7438554461
 H         -3.6061262153        1.2838858167       -2.6115668374
 H         -5.2978694957        1.2483016518       -2.0856404974
 H         -5.7659466808        0.8907079650        2.4812397747
 H         -6.9809296079        1.8373236436        1.6124177357
 H         -6.5091518973        0.6964001328       -0.4650136383
 H         -6.6838623857       -0.5352228527        0.7996367144
 O         -4.3481714203       -1.2656026992        0.9501353086
 C         -3.0918560428       -1.8404592782        0.8744963640
 O         -2.8918942552       -2.7444410038        1.7099980868
 H          0.6751930927       -0.1895339251       -1.4747928023
 C          0.8543141950       -0.1696284047       -0.4117173569
 C          0.1776392157       -1.0516830283        0.4169585245
 C          0.4045907417       -0.9855474329        1.7887606852
 C          1.2768019634       -0.0514721744        2.3164948803
 C          1.9376417167        0.8393524063        1.4887988518
 C          1.7172634402        0.7811743781        0.1188570869
 N          2.3737023857        1.6865997714       -0.7279393503
 S          3.9837749231        2.0315329425       -0.4543604275
 O          4.1031738180        2.9970326762        0.6105138886
 O          4.5074557290        2.4420762547       -1.7382091665
 C          4.7160092000        0.4848143548        0.0519307642
 C          5.3113143176        0.3770885182        1.2920715017
 C          5.8528701231       -0.8404483148        1.6726735725
 C          5.7870352716       -1.9243867502        0.8114829539
 C          5.1880412183       -1.7995850567       -0.4329293330
 C          4.6460359272       -0.5846969816       -0.8188588204
 H          4.1784323367       -0.4538193661       -1.7814125894
 H          5.1390182728       -2.6441092766       -1.1013223087
 H          6.2053326418       -2.8726229525        1.1101596439
 H          6.3206265584       -0.9396982260        2.6389370026
 H          5.3393258082        1.2447135820        1.9310939604
 H          2.1660102572        1.5645618237       -1.7074329243
 H          2.6032520478        1.5890913908        1.8847733484
 H          1.4404997727       -0.0112006671        3.3826428878
 H         -0.1267236691       -1.6671559008        2.4382641656
 C         -0.8284216272       -2.0410068659       -0.1197302227
 H         -0.8900851574       -2.8767910512        0.5893570415
 C         -0.4742937856       -2.5919265830       -1.4854558753
 C          0.6572594180       -3.5664956900       -1.6066399787
 C         -0.7559231925       -4.0323149485       -1.7848707869
 H         -1.0933418428       -4.2953571678       -2.7763110030
 H         -1.2018929483       -4.6277500260       -1.0014695493
 H          1.1714817042       -3.8463024939       -0.6997892515
 H          1.2925885485       -3.5135706016       -2.4773835415
 H         -0.6246515371       -1.8849908622       -2.2909316637
 O         -1.7758500236        0.0983095495       -1.8953758950
