  62
        -98.93907026
 C          2.3680754300        1.1797313900       -0.0663566007
 C          3.4766990000        0.8634805600        0.7539216793
 C          4.4097760802       -0.1656627598        0.2572906293
 C          4.1515625604       -0.7531264396       -0.9260114709
 C          4.9200371506       -1.8548458494       -1.6060519710
 C          4.6691603907       -3.2311175795       -0.9688752112
 C          4.6926559705       -3.2472834998        0.5573256788
 H          3.9392206804       -2.5528834300        0.9339579788
 H          4.3992421206       -4.2490675699        0.8822163185
 C          6.0442026004       -2.9270579997        1.1915563390
 H          6.7854301305       -3.6464436496        0.8365806589
 H          5.9362347403       -3.0665975999        2.2701888989
 C          6.5805690203       -1.5148511596        0.9475111993
 H          7.0058282404       -1.4225023394       -0.0482196107
 H          7.4018905702       -1.3530441596        1.6516601594
 C          5.5702992101       -0.3990957098        1.1946800094
 H          5.1321711500       -0.5263288000        2.1910468393
 H          6.1088272800        0.5553161303        1.2375029096
 H          3.6829609908       -3.5764424896       -1.2896055914
 H          5.4131146308       -3.9301928494       -1.3546701813
 H          4.5753118607       -1.8842431192       -2.6421095110
 H          5.9802199606       -1.6200391392       -1.6161021708
 O          3.0644651104       -0.4221952496       -1.6804107709
 C          2.1517559403        0.5382663402       -1.2850358209
 O          1.2244829603        0.7257237302       -2.0975170409
 O          3.6842044798        1.4166446498        1.8672744395
 C          1.3788397898        2.2206529598        0.4314446293
 C          0.0756885399        1.5203160996        0.7245577791
 C         -0.0526022901        0.7978804994        1.9081877489
 C         -1.2045020201        0.0842756992        2.1782296087
 C         -2.2499263400        0.0673520592        1.2705665385
 C         -2.1246816999        0.7702712594        0.0806866887
 C         -0.9748096500        1.5052294996       -0.1787622211
 H         -0.8875285500        2.0362473798       -1.1133222010
 N         -3.1758323498        0.7519865995       -0.8521673314
 S         -3.8754531196       -0.7258159106       -1.2321041018
 O         -2.9475442895       -1.8218219405       -1.0739997919
 O         -4.4437338695       -0.5467682604       -2.5506665318
 C         -5.2036709697       -0.8741885009       -0.0530279820
 C         -5.3340522096       -2.0275994411        0.6953318478
 C         -6.3834598297       -2.1281886714        1.5956774677
 C         -7.2801004899       -1.0794390115        1.7301197778
 C         -7.1367063299        0.0715370386        0.9695632380
 C         -6.0908277199        0.1777622389        0.0668348781
 H         -5.9456317199        1.0531282591       -0.5437250617
 H         -7.8355014501        0.8853500085        1.0774809580
 H         -8.0950912300       -1.1596796118        2.4319710476
 H         -6.4960552197       -3.0224930915        2.1873165575
 H         -4.6089001495       -2.8146979610        0.5615027378
 H         -2.9706788598        1.2713114396       -1.6940646913
 H         -3.1463191299       -0.4974591810        1.4680177183
 H         -1.2906930601       -0.4681848810        3.1015781986
 H          0.7723270998        0.7938565493        2.6071406090
 H          1.7943635397        2.5840797097        1.3809576695
 C          1.2527758598        3.3880341200       -0.5240055305
 C          0.6083206296        4.6556738098       -0.0506319003
 C          2.0857703396        4.6122234000       -0.2961089501
 H          2.4824461297        5.1311277002       -1.1558901500
 H          2.7474407095        4.6136389200        0.5575453499
 H         -0.0115059604        5.2088336598       -0.7395753403
 H          0.2651788395        4.6850096896        0.9723040697
 H          1.0910364200        3.0866723901       -1.5521188705
