  62
        -98.94336412
 C          1.8794954087        0.8349034988        0.6767954168
 C          2.2451661836        0.4343426753       -0.6311580912
 C          3.6854022484        0.4602892504       -0.9255662005
 C          4.5450969819        0.8837172489        0.0190312155
 C          6.0385568533        0.9054039133       -0.1279610052
 C          6.6623632100       -0.4053420035        0.3717117091
 C          5.9904112516       -1.6604294878       -0.1854695077
 H          6.5314216506       -2.5222758066        0.2114020887
 H          4.9689962916       -1.7187453986        0.1978652482
 C          5.9598747013       -1.7368678109       -1.7183607887
 H          6.6948660997       -1.0489210138       -2.1377947087
 H          6.2482579926       -2.7448754540       -2.0239436151
 C          4.5905708741       -1.4570271798       -2.3408343630
 H          3.8330811456       -2.0787070098       -1.8564871979
 H          4.6299573434       -1.7502465897       -3.3932811370
 C          4.1196246327        0.0019762481       -2.2892284043
 H          4.8985054319        0.6550285101       -2.6877749284
 H          3.2361242334        0.0881891825       -2.9282888615
 H          7.7207981289       -0.4082961207        0.1050983972
 H          6.5864859132       -0.4315088580        1.4613473526
 H          6.2940887857        1.0666895502       -1.1732916858
 H          6.4309220859        1.7331651109        0.4650996980
 O          4.1504362269        1.2974757201        1.2509462918
 C          2.8144875365        1.2661153329        1.6166346030
 O          2.5905527466        1.6394642236        2.7865752808
 H         -2.0937749564        0.0965289702        0.2301150770
 C         -1.4719152438       -0.7523162526        0.4614255260
 C         -0.1703449700       -0.5662842985        0.9019622672
 C          0.5937684581       -1.6891229535        1.2088470341
 C          0.0794913101       -2.9607765932        1.0498622205
 C         -1.2191973727       -3.1414936773        0.6078095075
 C         -1.9991906922       -2.0291265631        0.3207092976
 N         -3.3204484555       -2.1750594463       -0.1281118217
 S         -4.5143566206       -1.1729137439        0.4811104254
 O         -4.2353996514       -0.7782618142        1.8420524155
 O         -5.7466792752       -1.9043157581        0.2731975571
 C         -4.5140276040        0.2514126279       -0.5865950669
 C         -4.7887181134        1.4906358615       -0.0432384380
 C         -4.8432914214        2.5941028032       -0.8808111366
 C         -4.6225016744        2.4393027416       -2.2405445967
 C         -4.3487831817        1.1873286917       -2.7704508846
 C         -4.2982732250        0.0794781580       -1.9395771751
 H         -4.0861575609       -0.9062899189       -2.3183512961
 H         -4.1743991964        1.0713605728       -3.8280814682
 H         -4.6623255310        3.2994507202       -2.8902084849
 H         -5.0558832106        3.5682007414       -0.4693495304
 H         -4.9409282140        1.5683281909        1.0214982508
 H         -3.6405115886       -3.1298596648       -0.2020221581
 H         -1.6246307658       -4.1346801766        0.4871627948
 H          0.6911463003       -3.8203322256        1.2803795797
 H          1.6049824346       -1.5512469801        1.5678022652
 C          0.4201314861        0.8106451465        1.0893422080
 H          0.4014620439        1.0413760911        2.1654142052
 C         -0.3396778701        1.8925371320        0.3480141612
 C         -1.4991322251        2.5889447020        0.9924999788
 C         -0.1998450207        3.3118590622        0.8069390104
 H         -0.1446349841        4.0922020300        0.0631299251
 H          0.4180244047        3.4908647413        1.6751566358
 H         -2.3352613082        2.8737242702        0.3717405024
 H         -1.7756163959        2.2835751865        1.9908580398
 H         -0.3799338324        1.7115238639       -0.7201089518
 O          1.4156619790        0.0700252509       -1.5040277326
