  62
        -98.94640631
 C         -1.5235426794       -1.1086114708        0.0192194668
 C         -2.5486926395       -0.7847110034        0.9450974845
 C         -3.2674312443        0.4727729169        0.7039962316
 C         -2.9002676521        1.2503851513       -0.3304990028
 C         -3.5691254046        2.5369191717       -0.7169747243
 C         -4.6939119302        2.2933704304       -1.7330638835
 C         -5.6595990293        1.1787340045       -1.3306818894
 H         -6.4271571781        1.1182211732       -2.1053417649
 H         -5.1258659636        0.2255534906       -1.3331983234
 C         -6.3279736171        1.3805044216        0.0364674083
 H         -7.3923470126        1.1550559834       -0.0577093735
 H         -6.2445859015        2.4248663343        0.3393890534
 C         -5.7798151611        0.4845798869        1.1488962295
 H         -6.4589268210        0.5498885226        2.0031255148
 H         -5.7769197680       -0.5555314343        0.8130871339
 C         -4.3741742527        0.8331021838        1.6544349135
 H         -4.3298085908        1.8925174187        1.9145913115
 H         -4.1928197746        0.2487093423        2.5611053442
 H         -4.2434355425        2.0258789727       -2.6918015831
 H         -5.2464965065        3.2251531132       -1.8664938157
 H         -3.9689860013        3.0151221036        0.1749530151
 H         -2.8239215473        3.1944805202       -1.1679535184
 O         -1.8940137647        0.9230179590       -1.1788306898
 C         -1.1890349178       -0.2650273938       -1.0398167905
 O         -0.3144568623       -0.4313785996       -1.9114233750
 H          1.5005312603       -1.9992413576       -1.2739618132
 C          1.6697450066       -1.7945952062       -0.2291199349
 C          0.6486244764       -1.9882242685        0.6881944781
 C          0.8904199340       -1.6918658691        2.0268244253
 C          2.1226949017       -1.2155150125        2.4344943253
 C          3.1304726670       -0.9945960965        1.5115213800
 C          2.8912616271       -1.2727112868        0.1725868067
 N          3.8824953099       -0.9780647185       -0.7827039556
 S          4.5645131135        0.5481998651       -0.6742021048
 O          4.9017512751        0.9212197290       -2.0306436035
 O          5.6726971434        0.5066546531        0.2491660473
 C          3.2950097242        1.6239139704       -0.0212632429
 C          3.5764345081        2.3955137046        1.0884825114
 C          2.5922410527        3.2265196608        1.5983946860
 C          1.3449941033        3.2695212650        0.9948501253
 C          1.0796920770        2.4916334274       -0.1210902531
 C          2.0606059666        1.6611763516       -0.6386975030
 H          1.8536113392        1.0420424960       -1.4976617331
 H          0.1091854433        2.5113378048       -0.5918677256
 H          0.5739194463        3.9094383036        1.3943094293
 H          2.7978121876        3.8328929526        2.4657713408
 H          4.5563166622        2.3237073354        1.5320007389
 H          3.5850325158       -1.1633129575       -1.7302916962
 H          4.0909594635       -0.6018689271        1.8041997357
 H          2.2978663044       -0.9994754194        3.4771998667
 H          0.0916022726       -1.8245361405        2.7426357675
 C         -0.7380086172       -2.3901485559        0.2526089383
 H         -1.2345642743       -2.8869016265        1.0963035156
 C         -0.7646626557       -3.3177495108       -0.9434580724
 C         -0.3176076142       -4.7381849181       -0.7741097815
 C         -1.7684266838       -4.4291493088       -0.9856301530
 H         -2.2172985376       -4.6818312001       -1.9346657721
 H         -2.4400767566       -4.5291374502       -0.1456157746
 H          0.2316202294       -5.2066420053       -1.5764494351
 H         -0.0026899561       -5.0454027404        0.2116994071
 H         -0.5392312859       -2.8245583657       -1.8809225483
 O         -2.8475952241       -1.5155043077        1.9259924293
