  62
        -98.93961599
 C         -2.2299610423       -0.0181525109       -0.4678792559
 C         -3.3633501595       -0.5088033679       -1.1687849382
 C         -4.4914897756       -0.9663530296       -0.3481964870
 C         -4.3768197544       -0.9471691360        0.9918369370
 C         -5.4657789530       -1.3275446280        1.9515900638
 C         -6.3168325786       -0.1087052370        2.3352786406
 C         -6.7941603043        0.7143722976        1.1386048729
 H         -7.4096851126        1.5279760969        1.5285041473
 H         -5.9293982411        1.1720879204        0.6524727506
 C         -7.5966695142       -0.0812901847        0.0996168442
 H         -7.9553829700       -1.0114068651        0.5417566527
 H         -8.4747683983        0.5017855434       -0.1858613549
 C         -6.8322854885       -0.3944390471       -1.1880340528
 H         -6.3940486234        0.5243410095       -1.5864271473
 H         -7.5484357977       -0.7615359280       -1.9279559377
 C         -5.7219525178       -1.4456100840       -1.0656069124
 H         -5.3967783050       -1.7048171140       -2.0773925146
 H         -6.1181760267       -2.3454690596       -0.5909149251
 H         -5.7206759300        0.5404231657        2.9809961908
 H         -7.1793401678       -0.4562490270        2.9067777039
 H         -6.0923325289       -2.0927464278        1.4974846441
 H         -5.0038003213       -1.7352232803        2.8522289822
 O         -3.2552511705       -0.5292800361        1.6286169326
 C         -2.1565952962       -0.0456958850        0.9260209779
 O         -1.2170761586        0.3114021899        1.6602678063
 O         -3.4269505531       -0.5608590066       -2.4257715186
 C         -1.0692055108        0.4893519657       -1.3057340770
 C          0.2265332810       -0.1346752299       -0.8592314739
 C          0.5414727962       -1.4277443834       -1.2652437504
 C          1.7206999445       -2.0289302281       -0.8660986372
 C          2.6098371795       -1.3526310726       -0.0487579284
 C          2.2987866001       -0.0669161628        0.3698588661
 C          1.1213145321        0.5382291463       -0.0417685310
 H          0.8899823845        1.5358620008        0.2993021661
 N          3.2155832646        0.6237105289        1.2030303105
 S          4.5147993188        1.2876721015        0.3621803430
 O          5.1005927177        2.2685989848        1.2494683274
 O          4.1064061195        1.7712594854       -0.9394201970
 C          5.6251057540       -0.0887258710        0.1729751004
 C          5.7771452598       -0.6783424035       -1.0664247838
 C          6.6317662383       -1.7625163191       -1.1909977020
 C          7.3144206124       -2.2346579781       -0.0801844084
 C          7.1521468685       -1.6293807799        1.1573606301
 C          6.2988660352       -0.5454863561        1.2888992559
 H          6.1458369570       -0.0410439068        2.2285031671
 H          7.6860373135       -1.9988012450        2.0181106180
 H          7.9779947548       -3.0791646697       -0.1799182353
 H          6.7593064899       -2.2348243396       -2.1517570896
 H          5.2234001453       -0.2782282447       -1.9004193681
 H          2.7669576453        1.3530751430        1.7408684307
 H          3.5260901230       -1.8162348058        0.2789779985
 H          1.9493946997       -3.0322236900       -1.1914071993
 H         -0.1557219019       -1.9587343072       -1.8989000587
 H         -1.2892810418        0.1222953570       -2.3215446020
 C         -0.9804794582        2.0058022122       -1.4064564008
 C         -2.2231356544        2.8315778460       -1.5465923944
 C         -1.3953758949        2.9291040266       -0.3020178180
 H         -0.8120208569        3.8251492180       -0.1437636267
 H         -1.7763123175        2.4936966286        0.6085956890
 H         -2.2188553891        3.6610063443       -2.2373982219
 H         -3.1694008967        2.3135425629       -1.4889014884
 H         -0.1227419954        2.3167104712       -1.9968434154
