  62
        -98.94092357
 C          1.6155916522        0.0147517057        0.7638185687
 C          2.8959571775       -0.0549584972        1.3706747455
 C          4.0100483916        0.5081971302        0.6005754091
 C          3.7784444930        1.0396558446       -0.6131581684
 C          4.8041970788        1.6751014628       -1.5121198189
 C          5.5865273189        0.6735643775       -2.3726733966
 C          6.6094622591       -0.1751271319       -1.6164744788
 H          7.2599946622        0.4764271373       -1.0321364062
 H          7.2318189004       -0.6697976685       -2.3649233892
 C          5.9932367077       -1.2441577731       -0.7031461392
 H          6.5131622707       -2.1934606439       -0.8509154380
 H          4.9494327735       -1.4048199016       -0.9830679862
 C          6.0608336081       -0.9187221592        0.7890621601
 H          7.1042700507       -0.8872823225        1.1106392072
 H          5.5639293063       -1.7225974506        1.3383256062
 C          5.3894617637        0.4049770480        1.1779363430
 H          6.0017467273        1.2464847304        0.8542148684
 H          5.2984097211        0.4357369549        2.2665556712
 H          6.1164180384        1.2455923917       -3.1378309200
 H          4.8745865150        0.0189500323       -2.8806489737
 H          5.5003009152        2.2642572168       -0.9144300544
 H          4.2597671361        2.3485527092       -2.1774400822
 O          2.5402189221        1.0732042016       -1.1694019842
 C          1.4318519929        0.5435963139       -0.5154285249
 O          0.3812869609        0.6170229594       -1.1767375312
 O          3.0983508146       -0.5665421147        2.5042773625
 C          0.4461135379       -0.5797218336        1.5283785947
 C         -0.3430856330       -1.4972859600        0.6310843908
 C          0.2600295061       -2.6623714741        0.1637976916
 C         -0.4184896984       -3.5170192205       -0.6825952124
 C         -1.7143934146       -3.2312978984       -1.0754951155
 C         -2.3232393819       -2.0688628894       -0.6183347248
 C         -1.6384290785       -1.2124158827        0.2326589406
 H         -2.1199598180       -0.3099855430        0.5680345485
 N         -3.6153160441       -1.7328352531       -1.0350976084
 S         -4.6330727410       -0.7890146505       -0.1186426974
 O         -4.5420652796       -1.1102558266        1.2876729449
 O         -5.9369473392       -0.9813701888       -0.7188608969
 C         -4.1148997866        0.8927937450       -0.3933260402
 C         -3.4935901634        1.2425247308       -1.5747497042
 C         -3.1372935904        2.5664614170       -1.7751150889
 C         -3.4146912509        3.5146251950       -0.8030456906
 C         -4.0451968694        3.1486494773        0.3760688924
 C         -4.3984012609        1.8252250946        0.5854359466
 H         -4.8765777496        1.4944222720        1.4939526666
 H         -4.2580397126        3.8873472804        1.1325650397
 H         -3.1344900967        4.5438894015       -0.9630739272
 H         -2.6374823644        2.8505857512       -2.6870977566
 H         -3.2771343225        0.4848155413       -2.3089274835
 H         -4.0984970862       -2.4154009785       -1.5980560047
 H         -2.2463159585       -3.8960874109       -1.7389261227
 H          0.0618976681       -4.4161125581       -1.0386306760
 H          1.2740589914       -2.8840468339        0.4686088553
 H          0.9185192021       -1.1960960449        2.3119178000
 C         -0.4198284050        0.4426952965        2.2482513491
 C          0.1797875323        1.6972595261        2.8073702000
 C         -0.7711537800        1.7717729090        1.6524044678
 H         -1.7637955709        2.1602832121        1.8281280300
 H         -0.3838178309        2.0030054844        0.6729567715
 H         -0.1544745955        2.0401821663        3.7749009577
 H          1.2286787377        1.8741758965        2.6184893373
 H         -1.1886937245       -0.0351748904        2.8493437187
