  62
        -98.95114502
 C         -1.9852347654       -0.9258967321        0.1158332608
 C         -1.5173338587       -1.8518301655       -0.8485018972
 C         -0.4660227402       -2.7748199858       -0.4000930599
 C         -0.0442333652       -2.7217339498        0.8762501693
 C          1.0422623623       -3.5759184900        1.4611037241
 C          2.4141421185       -2.8956321700        1.3588909358
 C          2.7452786041       -2.3664138331       -0.0364238766
 H          2.0829540053       -1.5328538691       -0.2812071657
 H          3.7585280644       -1.9587959989        0.0013731044
 C          2.6565274739       -3.4118586392       -1.1566693258
 H          3.5249261137       -3.2968100340       -1.8086913108
 H          2.6950023429       -4.4178167040       -0.7358048208
 C          1.4166248141       -3.2742765058       -2.0430612961
 H          1.3120360510       -2.2310360018       -2.3553627115
 H          1.5728389747       -3.8726446508       -2.9451845471
 C          0.0936764972       -3.7316270489       -1.4134972694
 H          0.2160957215       -4.7275416534       -0.9813675469
 H         -0.6517268576       -3.7929473979       -2.2121246850
 H          2.4407171127       -2.0537129006        2.0543759707
 H          3.1762894873       -3.6151936680        1.6636860737
 H          0.8114947949       -3.7476072413        2.5139425564
 H          1.0606033977       -4.5328039585        0.9430313956
 O         -0.5488816830       -1.8505381219        1.7857350643
 C         -1.4962042300       -0.9019283674        1.4214456052
 O         -1.8115309023       -0.1208061122        2.3386083223
 O         -1.9615093675       -1.9025807274       -2.0275894086
 C         -2.9835940347        0.1376060318       -0.3116616636
 C         -2.2958483667        1.4808001898       -0.2493974033
 C         -2.7697264019        2.5667749315        0.4738950415
 C         -2.0406051170        3.7430170213        0.5221336423
 C         -0.8258910131        3.8548529387       -0.1290181711
 C         -0.3474858839        2.7772282952       -0.8674700395
 C         -1.0964673780        1.6138558097       -0.9400766480
 H         -0.7263734526        0.7844910998       -1.5255520008
 N          0.8790582840        2.8596183577       -1.5511529064
 S          2.0111340066        1.6332338510       -1.4567343280
 O          3.1710712022        2.1633976146       -2.1388800517
 O          1.4646543563        0.4095505359       -1.9818835664
 C          2.3801426079        1.4528297051        0.2780165897
 C          3.5601197388        1.9670703690        0.7786045554
 C          3.8247207880        1.8409705823        2.1329396866
 C          2.9054138124        1.2165628403        2.9629583778
 C          1.7217619994        0.7116616369        2.4467828698
 C          1.4578318211        0.8272224295        1.0916999464
 H          0.5458189074        0.4386505096        0.6665539818
 H          0.9904304589        0.2311631075        3.0788273169
 H          3.1098100981        1.1207060735        4.0177084929
 H          4.7447429195        2.2306376843        2.5379109077
 H          4.2458308099        2.4428154032        0.0963426960
 H          1.3372455446        3.7560632978       -1.4695751781
 H         -0.2513627449        4.7668413210       -0.0717699024
 H         -2.4171355272        4.5801838174        1.0898906149
 H         -3.7029051067        2.4902590171        1.0067365368
 H         -3.2091392527       -0.0822107526       -1.3657747208
 C         -4.2634875320        0.0594623267        0.4904302506
 C         -5.5407596230        0.5900375127       -0.0868430383
 C         -5.3376560686       -0.8880584198        0.0510663009
 H         -5.8966392385       -1.4192155720        0.8067096923
 H         -5.1549060457       -1.4667258022       -0.8428790834
 H         -6.2445023389        1.0731973367        0.5737982314
 H         -5.5016702946        1.0158776504       -1.0781283786
 H         -4.0982389031        0.1658099034        1.5561150812
