  62
        -98.93068674
 C          2.3767697490        1.1960459572        0.1097395765
 C          2.4723015844       -0.1092987538       -0.4258939422
 C          3.8361244556       -0.6307569714       -0.6686471935
 C          4.8948340095        0.1383436155       -0.3571159604
 C          6.3583796807       -0.1930138529       -0.4785923709
 C          6.8439819283       -1.1416790298        0.6297470159
 C          5.9073340141       -2.3077752743        0.9350053841
 H          6.3044170806       -2.8327850016        1.8078286373
 H          4.9260450115       -1.9173975709        1.2112948262
 C          5.7489247914       -3.3268532104       -0.1906870465
 H          6.7273690960       -3.7475681999       -0.4330879146
 H          5.1237702082       -4.1377672143        0.1916905017
 C          5.1123719961       -2.8052307646       -1.4804376507
 H          4.8484229886       -3.6757824220       -2.0881121952
 H          5.8245481490       -2.2274600730       -2.0633958904
 C          3.8251855355       -2.0107034921       -1.2813292091
 H          3.1278673999       -2.6010313589       -0.6758977477
 H          3.3326494377       -1.8967871619       -2.2550225803
 H          6.9568641992       -0.5581288743        1.5466517957
 H          7.8269427420       -1.5242961005        0.3501652642
 H          6.5669774296       -0.6043805333       -1.4616575905
 H          6.9012014606        0.7506700193       -0.3905587991
 O          4.7534820100        1.3807970688        0.1889112205
 C          3.5150374134        1.9342701076        0.4410561838
 O          3.5542944572        3.0678247965        0.9607676097
 O          1.4773506974       -0.8314293837       -0.6950662391
 C          1.0373655997        1.8480645893        0.4042201073
 C          0.1099986906        0.8685919236        1.0801995629
 C          0.4742200490        0.3549320639        2.3227843320
 C         -0.3449400583       -0.5365688818        2.9869961173
 C         -1.5551509527       -0.9203308503        2.4361593885
 C         -1.9243402907       -0.4189465001        1.1941913394
 C         -1.0936261606        0.4684304788        0.5241157900
 H         -1.3976057767        0.8231001532       -0.4464275737
 N         -3.1318165061       -0.8100777017        0.5939105338
 S         -3.9740000913        0.3227832805       -0.3291038126
 O         -3.4616698013        0.3148265909       -1.6760805064
 O         -3.9802161180        1.6034926505        0.3426692698
 C         -5.6072203512       -0.3944935355       -0.3069538908
 C         -6.5519284601        0.0906292131        0.5774121775
 C         -7.8082606932       -0.4945057624        0.6039878133
 C         -8.0957790089       -1.5510978145       -0.2468049269
 C         -7.1372728293       -2.0270489057       -1.1294110113
 C         -5.8798616186       -1.4456045425       -1.1623923923
 H         -5.1068438236       -1.7744266914       -1.8374100738
 H         -7.3652769777       -2.8467748929       -1.7914501762
 H         -9.0740324419       -2.0047028457       -0.2243160577
 H         -8.5565759888       -0.1244253914        1.2861208794
 H         -6.2854870047        0.9187959595        1.2142477432
 H         -3.7420384370       -1.3141195424        1.2223462819
 H         -2.2001487697       -1.6118530188        2.9568944677
 H         -0.0450131945       -0.9294113048        3.9470977245
 H          1.4172633692        0.6617770408        2.7561045328
 H          1.2643501230        2.6465309128        1.1313467690
 C          0.4016782494        2.5287574077       -0.7987680903
 C          1.2408585654        3.1350474779       -1.8823191949
 C          0.4160984798        1.9173307995       -2.1659225252
 H         -0.4683585382        2.0189678887       -2.7786978669
 H          0.9162250081        0.9689080189       -2.2825431642
 H          0.9297561920        4.0793180590       -2.3031067300
 H          2.3126784565        3.0213936895       -1.8067283253
 H         -0.4963802819        3.0757703137       -0.5236820525
