  62
        -98.93955093
 C         -2.4601281209       -0.9818482920        0.5459503782
 C         -2.3998640927        0.3257540233        0.0022378193
 C         -3.5763140255        1.1725472701        0.2532605947
 C         -4.5931732467        0.7124426667        1.0023442617
 C         -5.8489420579        1.4628423259        1.3536358097
 C         -6.9367515132        1.3952189673        0.2728690379
 C         -6.6586426267        2.2215797814       -0.9835275057
 H         -7.5882766478        2.2572157661       -1.5550166192
 H         -6.4133464773        3.2447283862       -0.6970395209
 C         -5.5494480340        1.6567128134       -1.8820161575
 H         -5.3658287364        0.6117558993       -1.6210783040
 H         -5.8808281159        1.6716174560       -2.9228426642
 C         -4.2284715315        2.4235415340       -1.8160271306
 H         -4.3732546235        3.4357117450       -2.2000933092
 H         -3.5064591013        1.9190775514       -2.4635175234
 C         -3.6213870280        2.5161610588       -0.4098233827
 H         -2.5933464633        2.8750431629       -0.5018095546
 H         -4.1863949722        3.2224203161        0.1978874001
 H         -7.8646099377        1.7573739471        0.7215753847
 H         -7.0888461628        0.3495273254       -0.0049007614
 H         -5.6072512028        2.5049526842        1.5642804162
 H         -6.2399380432        1.0050446608        2.2648545547
 O         -4.5831741613       -0.5271748508        1.5616495199
 C         -3.5329592883       -1.4015128667        1.3380771512
 O         -3.6638465138       -2.5074044887        1.9005125343
 O         -1.4326240431        0.7779752192       -0.6613440964
 C         -1.3404843242       -1.9901090472        0.3489470709
 C         -0.0051094407       -1.3469020023        0.6279085057
 C          0.3229379143       -1.0265168347        1.9420087444
 C          1.5343799014       -0.4344825649        2.2441711454
 C          2.4437417834       -0.1459709119        1.2417780875
 C          2.1250321331       -0.4577903367       -0.0724090069
 C          0.9109266157       -1.0620617109       -0.3716972624
 H          0.6672928189       -1.2806573796       -1.4000462275
 N          3.0383840371       -0.1482644024       -1.0951436108
 S          4.6186107883       -0.6862021623       -0.9392673375
 O          5.1259742559       -0.7752070873       -2.2913628270
 O          4.6884759272       -1.8930707077       -0.1474312088
 C          5.4497374742        0.6437817361       -0.0960022886
 C          6.1127189325        0.3981836180        1.0903572863
 C          6.7608726988        1.4461609442        1.7254746052
 C          6.7356780519        2.7140427458        1.1650914434
 C          6.0679109752        2.9434717179       -0.0287992482
 C          5.4187420879        1.9000164815       -0.6690157386
 H          4.8919784655        2.0362960936       -1.5987805516
 H          6.0506483636        3.9308309355       -0.4615073191
 H          7.2396716118        3.5283178895        1.6614412144
 H          7.2810596539        1.2697172744        2.6532881029
 H          6.1015563356       -0.6029678407        1.4910751360
 H          2.6833470183       -0.3222005768       -2.0240408965
 H          3.3886173245        0.3206104444        1.4683442238
 H          1.7729813338       -0.1919256879        3.2686941811
 H         -0.3910031302       -1.2453393035        2.7248986795
 H         -1.5098197285       -2.7557704046        1.1236202262
 C         -1.3856861870       -2.7153284121       -0.9884030518
 C         -2.6985139320       -3.0871295199       -1.6088559369
 C         -1.8284725941       -2.0554454416       -2.2582486016
 H         -1.3207172113       -2.3195829375       -3.1749468829
 H         -2.1299511024       -1.0212161008       -2.2101946181
 H         -2.7908364987       -4.0553157985       -2.0774780352
 H         -3.5962920494       -2.7584787569       -1.1055046008
 H         -0.5889482916       -3.4490209340       -1.0733482599
