  62
        -98.93777833
 C          1.2151260131        1.4665997047        0.3076142553
 C          1.7655266901        0.5068106563        1.1898694564
 C          2.9831597178       -0.2011970392        0.7507658940
 C          3.4700525600        0.0563387501       -0.4768679768
 C          4.6731518966       -0.5438454497       -1.1558175513
 C          4.4175584843       -1.9678951437       -1.6708142458
 C          3.7140626513       -2.8905153376       -0.6793414409
 H          2.7399961666       -2.4681868700       -0.4225626873
 H          3.5218226868       -3.8390545183       -1.1884953038
 C          4.4987546790       -3.1944455844        0.5953186790
 H          3.9344018428       -3.9514432337        1.1460434661
 H          5.4630484320       -3.6307717419        0.3252838826
 C          4.7429213246       -2.0107069369        1.5352180179
 H          5.0520378261       -2.4219116495        2.5005331105
 H          5.5647146712       -1.3907725840        1.1866739817
 C          3.5131286578       -1.1486484858        1.7997475418
 H          2.6732376429       -1.7974125595        2.0751975798
 H          3.7020094766       -0.5301508120        2.6855314360
 H          5.3740557665       -2.4052925597       -1.9631759527
 H          3.7895388330       -1.8994039452       -2.5627574619
 H          4.9008548793        0.0979072296       -2.0100896358
 H          5.5296368337       -0.5238273004       -0.4883548361
 O          2.8629996576        0.9343286910       -1.3251726276
 C          1.7221901652        1.6386537292       -0.9804564113
 O          1.2803433894        2.3624585016       -1.8924022241
 H         -0.7125104273       -0.1041652097       -0.3696741360
 C         -1.3555305521        0.6890145811       -0.7188181389
 C         -1.1357014027        1.9870243765       -0.2769313518
 C         -1.9440215524        2.9999913925       -0.7746787712
 C         -2.9377895128        2.7094591585       -1.6944399683
 C         -3.1633842618        1.4124387778       -2.1177030437
 C         -2.3570240106        0.3916283991       -1.6261436638
 N         -2.5399177333       -0.9415537811       -2.0221850123
 S         -2.2412231763       -2.1710576083       -0.9314876362
 O         -0.8229917968       -2.3795432704       -0.7759594287
 O         -2.9874512112       -3.2968783882       -1.4529544796
 C         -2.9790842233       -1.6168266348        0.5960772184
 C         -2.1977513709       -1.2973444621        1.6872209476
 C         -2.8132392344       -0.8252166688        2.8363189620
 C         -4.1910568723       -0.6822554457        2.8754290756
 C         -4.9642174300       -1.0162358846        1.7735027788
 C         -4.3545464844       -1.4855353186        0.6222223148
 H         -4.9220922173       -1.7648313117       -0.2505335614
 H         -6.0363132943       -0.9089769398        1.8080277798
 H         -4.6634123237       -0.3101982103        3.7707996402
 H         -2.2047899189       -0.5656392255        3.6881480599
 H         -1.1259254228       -1.4097173613        1.6310308852
 H         -3.3570759970       -1.1172882131       -2.5871330597
 H         -3.9417656095        1.1904709253       -2.8313425651
 H         -3.5520467692        3.5072344538       -2.0834346850
 H         -1.7847068276        4.0186409732       -0.4619295367
 C         -0.0460873897        2.1869800599        0.7469880757
 H         -0.3555029920        1.6435408274        1.6570047250
 C          0.1510034195        3.6369518706        1.1623558851
 C          1.5025999859        4.1597849693        1.5452657912
 C          0.8417668484        4.6403304560        0.2898392041
 H          0.4585163139        5.6502299959        0.2694670332
 H          1.2241283923        4.2960366114       -0.6576407366
 H          1.5734781330        4.8351984391        2.3848081726
 H          2.3441250178        3.4881347134        1.4514670110
 H         -0.6834922814        4.0042138213        1.7518587807
 O          1.2558221597        0.2398390157        2.3126106735
