  62
        -98.94682588
 C          1.7608960671        1.3768068641       -0.0532502357
 C          2.8946073453        0.7262206692        0.4931501604
 C          3.3283609317       -0.5033466746       -0.1808862942
 C          2.6338613845       -0.9506587436       -1.2425398779
 C          2.9347017763       -2.2136203210       -1.9954105830
 C          2.1424371440       -3.3997607420       -1.4296436683
 C          2.2423054255       -3.5445244789        0.0890037016
 H          1.7253136429       -2.7030619084        0.5577627675
 H          1.6839549047       -4.4424187023        0.3650864592
 C          3.6758030784       -3.6471063430        0.6290140935
 H          3.7085147540       -4.4429660560        1.3762172017
 H          4.3547717012       -3.9302755577       -0.1765106305
 C          4.1958661195       -2.3790521388        1.3087789409
 H          5.1084350449       -2.6351388220        1.8541324924
 H          3.4619285507       -2.0330778053        2.0416522828
 C          4.5324220240       -1.2097682868        0.3748747220
 H          5.0758964972       -0.4623165392        0.9605733287
 H          5.1836556302       -1.5568126563       -0.4300705950
 H          1.0874953679       -3.2657038374       -1.6810408341
 H          2.4977319721       -4.3136150039       -1.9104880323
 H          2.6535520755       -2.0669082916       -3.0398818902
 H          4.0025654360       -2.4174511695       -1.9411610007
 O          1.5458522698       -0.3097086996       -1.7331628438
 C          1.0567406831        0.8393034647       -1.1311184459
 O          0.0165378071        1.2781938140       -1.6583450179
 O          3.5132128243        1.1544005466        1.5059005260
 C          1.2382026803        2.6107021995        0.6624949641
 C         -0.2423648693        2.4554377950        0.9068384348
 C         -1.1944122673        3.4150309552        0.5894325688
 C         -2.5383980426        3.1738330663        0.8213112683
 C         -2.9631936632        1.9655295606        1.3418354646
 C         -2.0168004194        0.9990089350        1.6620633109
 C         -0.6714502640        1.2629738344        1.4776681994
 H          0.0508009315        0.5012496828        1.7350621034
 N         -2.3859838353       -0.2751184073        2.1484762566
 S         -2.0974079953       -1.5528948284        1.0956547654
 O         -2.5583226909       -2.7337725117        1.7954789312
 O         -0.7171059507       -1.5502986870        0.6897895553
 C         -3.1886651613       -1.2214699279       -0.2766265837
 C         -4.4277247354       -1.8343933614       -0.2899753191
 C         -5.3225632979       -1.5205323897       -1.2993774359
 C         -4.9692724929       -0.5923122915       -2.2677726961
 C         -3.7243619132        0.0161219745       -2.2368400055
 C         -2.8198530336       -0.2961456271       -1.2322236871
 H         -1.8442076049        0.1644576566       -1.1959382633
 H         -3.4417752682        0.7389077859       -2.9854134602
 H         -5.6667142409       -0.3417871584       -3.0515658181
 H         -6.2901498304       -1.9953449288       -1.3257072779
 H         -4.6559734847       -2.5495082045        0.4840363610
 H         -3.3467731286       -0.3250675120        2.4612062583
 H         -4.0135224579        1.7650580288        1.4920070387
 H         -3.2665851858        3.9295212731        0.5693390190
 H         -0.8888650745        4.3456239090        0.1403028889
 H          1.7453509163        2.5887050633        1.6425561962
 C          1.6154962470        3.9326203049        0.0109545860
 C          2.7930855877        4.0333586989       -0.9107484453
 C          1.4047494169        4.1922940906       -1.4496975068
 H          1.0851986287        5.1783530181       -1.7537705008
 H          0.9872727600        3.3929568712       -2.0408672850
 H          3.4247356424        4.9063287617       -0.8411963971
 H          3.3292273688        3.1233176414       -1.1390413102
 H          1.4635308737        4.7729750424        0.6814412361
