  62
        -98.94027926
 C          1.9658484931        1.4215828897       -0.0136668086
 C          1.7732508377        0.0757876785       -0.4123773547
 C          2.9998016963       -0.6925004488       -0.6703747388
 C          4.2036797788       -0.1102572637       -0.5301614331
 C          5.5378749807       -0.7586337869       -0.7814253179
 C          6.0704317177       -1.5696760491        0.4078397228
 C          5.3461297658       -2.8904968417        0.6719751044
 H          5.3074235095       -3.4731993264       -0.2489266145
 H          5.9528473161       -3.4509200282        1.3861084301
 C          3.9302199776       -2.7334882362        1.2443854463
 H          3.8075389449       -1.7226858650        1.6405907520
 H          3.7973113759       -3.4217937580        2.0822009016
 C          2.8071579931       -3.0138638011        0.2457865606
 H          2.8377467378       -4.0639367392       -0.0535956982
 H          1.8516716171       -2.8343966203        0.7459408007
 C          2.8539569300       -2.1435318400       -1.0167523477
 H          3.6680880372       -2.4654474630       -1.6656626138
 H          1.9092521427       -2.2677743052       -1.5512090629
 H          7.1214133674       -1.7903054301        0.2072469186
 H          6.0279250870       -0.9455466819        1.3036357154
 H          6.2424095387        0.0498145115       -0.9888168013
 H          5.4753954261       -1.3993062239       -1.6614838310
 O          4.3467077477        1.1855994601       -0.1434163300
 C          3.2412111778        1.9672083959        0.1535794775
 O          3.5196986161        3.1156604767        0.5527994110
 O          0.6493054040       -0.4675927062       -0.5516215678
 C          0.7945146473        2.3293568364        0.3199970990
 C         -0.2171210774        1.5868024044        1.1600148126
 C          0.2238017620        0.9143490547        2.2975682964
 C         -0.6550188351        0.1999632663        3.0877941722
 C         -2.0035580380        0.1576971689        2.7770704428
 C         -2.4573645606        0.8395929299        1.6580228411
 C         -1.5692337223        1.5486229303        0.8572014128
 H         -1.9430495993        2.0523569037       -0.0205454278
 N         -3.8359168146        0.8128969725        1.3530483389
 S         -4.5009404600       -0.6361600518        0.8389764243
 O         -5.9256293627       -0.4044578232        0.7552003248
 O         -4.0737051720       -1.6867466498        1.7261417698
 C         -3.8484991557       -0.8885457264       -0.8024724572
 C         -2.5132579986       -1.2051595128       -0.9498876798
 C         -1.9961955348       -1.3366672716       -2.2286982495
 C         -2.8156084019       -1.1540702748       -3.3313205171
 C         -4.1565060155       -0.8398404046       -3.1657753092
 C         -4.6787594223       -0.6989221536       -1.8905496018
 H         -5.7129980424       -0.4506289895       -1.7139736618
 H         -4.7924868354       -0.6993448422       -4.0251372696
 H         -2.4056906125       -1.2549823988       -4.3241325577
 H         -0.9476255214       -1.5608016370       -2.3401500020
 H         -1.8819468639       -1.3316566832       -0.0855888762
 H         -4.1177079218        1.5436118546        0.7137698193
 H         -2.7021592303       -0.4066422151        3.3726116813
 H         -0.2898930171       -0.3269264842        3.9568944758
 H          1.2767673814        0.9457314580        2.5454996210
 H          1.2255331799        3.1274616169        0.9473033360
 C          0.1802171709        3.0147101020       -0.8934059785
 C          0.9383816469        3.1558815652       -2.1787096624
 C         -0.2451569325        2.2410999780       -2.1048529768
 H         -1.1521024278        2.5353067072       -2.6132202657
 H         -0.0748077934        1.1765529457       -2.0948788651
 H          0.8436817324        4.0816685499       -2.7264162004
 H          1.9244955477        2.7178863636       -2.2326662058
 H         -0.4376802315        3.8622392464       -0.6122086109
