  62
        -98.93723504
 C         -2.2964540826       -1.0961536826       -0.4467677513
 C         -3.0599371271       -0.1205214505       -1.1358042213
 C         -4.4248550532        0.0906937250       -0.6289351272
 C         -4.8764175038       -0.6203542411        0.4186858173
 C         -6.2474314446       -0.5273288161        1.0315653868
 C         -6.4011044638        0.6095021441        2.0513487179
 C         -6.4470951864        2.0170021456        1.4551893768
 H         -7.2003496132        2.0519754485        0.6674829512
 H         -6.7753962168        2.6901895843        2.2496483591
 C         -5.1027574820        2.5171093985        0.9082066298
 H         -4.9279732738        3.5392366789        1.2513919256
 H         -4.2943865309        1.9022325136        1.3108295816
 C         -5.0045312810        2.5281458006       -0.6172335522
 H         -5.7218378646        3.2435602759       -1.0253763240
 H         -4.0014419892        2.8617532771       -0.8939375097
 C         -5.2481246324        1.1639229549       -1.2755409762
 H         -6.3066509854        0.9088027690       -1.2330515799
 H         -4.9442701276        1.2299629642       -2.3230385052
 H         -5.5822630594        0.5451765788        2.7717496168
 H         -7.3340781644        0.4364721715        2.5928253433
 H         -6.9937801774       -0.4153055067        0.2445390807
 H         -6.4226240766       -1.4755994592        1.5444203006
 O         -4.1130674332       -1.5529802879        1.0501350866
 C         -2.8128159029       -1.7968472576        0.6466192959
 O         -2.2216099593       -2.6620898528        1.3264134691
 H          1.2878184891       -2.1647447860        0.6264077209
 C          1.1941741784       -1.0897008606        0.5449165178
 C          0.1237024147       -0.5456751026       -0.1494256454
 C          0.0167971235        0.8397329886       -0.2286638568
 C          0.9675587795        1.6541285200        0.3599082804
 C          2.0483751015        1.1048100557        1.0292151816
 C          2.1545048395       -0.2748879528        1.1247758373
 N          3.2998103645       -0.8300466332        1.7623981560
 S          4.5264490765       -1.1197535178        0.6371281051
 O          4.0108872755       -1.8108356605       -0.5254971709
 O          5.5782060523       -1.8000867085        1.3588345066
 C          5.0315336991        0.5246638292        0.1953822444
 C          5.8866515106        1.2059358437        1.0392132443
 C          6.2424835825        2.5067833326        0.7207452839
 C          5.7347895798        3.1004932907       -0.4254757634
 C          4.8774727395        2.4017829203       -1.2621009220
 C          4.5194615593        1.0995404644       -0.9511113440
 H          3.8561041951        0.5196314373       -1.5731112971
 H          4.4828299646        2.8651541609       -2.1519891457
 H          6.0095084951        4.1145865392       -0.6697287049
 H          6.9103893933        3.0536023882        1.3667174341
 H          6.2570273854        0.7024316518        1.9168954968
 H          3.0951647125       -1.7021235221        2.2333863553
 H          2.7984373964        1.7298105080        1.4857329936
 H          0.8715543482        2.7265747898        0.2885362499
 H         -0.8152684693        1.2673426618       -0.7674591221
 C         -0.8690410809       -1.4553474639       -0.8230677310
 H         -0.7136138387       -2.4679855909       -0.4165245325
 C         -0.6416942986       -1.5456647260       -2.3268497714
 C          0.1404123405       -0.5457975031       -3.1183783186
 C          0.7173823509       -1.9023196912       -2.8555389286
 H          0.7857184298       -2.6058205868       -3.6718975406
 H          1.5316487612       -1.9755755392       -2.1474097052
 H         -0.2130602256       -0.3123370021       -4.1109651158
 H          0.5670314589        0.2981075909       -2.6003581952
 H         -1.4906613497       -1.9960146997       -2.8318461315
 O         -2.6480918177        0.5463407018       -2.1172112529
