  62
        -98.93917932
 C          2.3516448952        1.2706621244       -0.0243792466
 C          3.1285390489        0.5242101347        0.8886132561
 C          3.8382184745       -0.6550785898        0.3557299141
 C          3.6920526220       -0.9615798092       -0.9470096015
 C          4.2655553859       -2.1378444007       -1.6906483879
 C          3.5082437177       -3.4445125029       -1.3975520278
 C          3.1388583946       -3.6625166169        0.0680215149
 H          2.5430147815       -2.8159231039        0.4161737983
 H          2.4979831984       -4.5469941812        0.1207403425
 C          4.3180441866       -3.8810992036        1.0133801669
 H          3.9056856692       -4.0794752570        2.0060894297
 H          4.8664450549       -4.7714732101        0.6978924377
 C          5.3073259545       -2.7203590144        1.1297985217
 H          5.9512575059       -2.6699350625        0.2561956156
 H          5.9574263018       -2.9328085223        1.9835565205
 C          4.6716747943       -1.3597132843        1.3993556408
 H          5.4663027972       -0.6538378094        1.6704108896
 H          4.0356378856       -1.4329572607        2.2889289746
 H          4.1117666902       -4.2818630016       -1.7514033822
 H          2.5785142118       -3.4310315744       -1.9723686837
 H          4.1702327490       -1.9136888959       -2.7552543758
 H          5.3230432490       -2.2410516957       -1.4664131782
 O          2.9152843715       -0.2215632666       -1.7890772413
 C          2.2262121131        0.8989911037       -1.3626323049
 O          1.5587611285        1.4643700199       -2.2489229998
 O          3.2189343154        0.8182787077        2.1126886476
 C          1.5826240551        2.4807177398        0.4755241156
 C          0.1038285102        2.2414925463        0.2926643180
 C         -0.7518284102        3.1343387938       -0.3374466356
 C         -2.0919038625        2.8247074461       -0.4981097228
 C         -2.6076618702        1.6298758124       -0.0316931323
 C         -1.7618530016        0.7325571078        0.6077623551
 C         -0.4227943644        1.0468799335        0.7701200121
 H          0.2365477423        0.3430514726        1.2646279742
 N         -2.2788071184       -0.4857021244        1.0925368510
 S         -3.0296897159       -1.4880797795       -0.0316695187
 O         -2.9132888435       -2.8224956634        0.5167075823
 O         -2.4971933506       -1.2896945566       -1.3602153087
 C         -4.7354413535       -0.9826035989        0.0297632399
 C         -5.3921925015       -1.0526781036        1.2429359375
 C         -6.7205509213       -0.6635697662        1.3073047257
 C         -7.3663601546       -0.2167377864        0.1639183181
 C         -6.6938170252       -0.1558243374       -1.0470363012
 C         -5.3642840424       -0.5423472659       -1.1182209967
 H         -4.7977115810       -0.5062388293       -2.0352117596
 H         -7.1971014793        0.1916152742       -1.9349412015
 H         -8.4002036603        0.0859792592        0.2166598714
 H         -7.2470053153       -0.7092898721        2.2469719736
 H         -4.8541861748       -1.4097486155        2.1050540769
 H         -1.6031452526       -1.0185178357        1.6224703265
 H         -3.6488301277        1.3835359133       -0.1616324302
 H         -2.7437930666        3.5248115589       -0.9978666262
 H         -0.3679108696        4.0672962438       -0.7155623090
 H          1.7907031545        2.5336511486        1.5546339998
 C          2.0853073678        3.7477460725       -0.1816286335
 C          1.9519679685        5.0640249297        0.5225780194
 C          3.2986384191        4.4224921428        0.3819994077
 H          4.0110368664        4.8571802052       -0.3029404787
 H          3.7504604451        3.9793633579        1.2575663010
 H          1.7414553014        5.9443381375       -0.0655613675
 H          1.4904764653        5.0634967813        1.4983592488
 H          1.9801524172        3.7270351907       -1.2604483641
