  62
        -98.93733389
 C         -1.8435534445       -1.2140848568       -0.4694477810
 C         -1.9217433707       -0.0154561089        0.2783840613
 C         -3.2421737207        0.3108593825        0.8458744013
 C         -4.2759265914       -0.5229496430        0.6408828395
 C         -5.6891207369       -0.4080172216        1.1552859883
 C         -6.3547607735        0.9741757551        1.0957742127
 C         -5.9209340097        1.8555630008       -0.0846610087
 H         -5.3573408601        1.2628608845       -0.8072056622
 H         -6.8116140979        2.2284198577       -0.5939270579
 C         -5.0865581126        3.0641688361        0.3469891102
 H         -5.5385306752        3.4998904010        1.2408050667
 H         -5.1295468175        3.8195151667       -0.4414101193
 C         -3.6105518571        2.7783932761        0.6209621421
 H         -3.1625947772        3.6874912278        1.0293648251
 H         -3.0965762204        2.5597280666       -0.3187524244
 C         -3.3314625816        1.6144765045        1.5858861177
 H         -2.3468432537        1.7754782867        2.0337141562
 H         -4.0709327795        1.5765274993        2.3821286982
 H         -6.1667271941        1.5093774613        2.0256254158
 H         -7.4314671014        0.8030108737        1.0456305124
 H         -5.7057509701       -0.7684746503        2.1881235583
 H         -6.2666081691       -1.1183365970        0.5586164706
 O         -4.1519454189       -1.6731177978       -0.0816746959
 C         -2.9474292101       -2.0439000364       -0.6543580259
 O         -2.9863770235       -3.1178117106       -1.2897340120
 O         -0.9399861259        0.7437558566        0.4747668490
 C         -0.5335260011       -1.6257589465       -1.1120231651
 C          0.5682798714       -1.7656779146       -0.0887012988
 C          0.2810282241       -2.2039290415        1.2002041632
 C          1.2773638642       -2.3173566184        2.1518742221
 C          2.5900899900       -2.0135723702        1.8361735304
 C          2.8933475717       -1.6048717265        0.5460947284
 C          1.8894968414       -1.4826874341       -0.4065200276
 H          2.1450338552       -1.1560414581       -1.4031278231
 N          4.2365380197       -1.2935238850        0.2279799222
 S          4.7887377320        0.1748355104        0.8233548788
 O          6.1634095052        0.2864628169        0.3909666844
 O          4.5552609850        0.2134620009        2.2433106752
 C          3.7888137996        1.3855484284       -0.0213241237
 C          2.4840030614        1.5729114655        0.3882328727
 C          1.6694470817        2.4273388966       -0.3381738139
 C          2.1740447659        3.0798746344       -1.4523642420
 C          3.4904889442        2.8883104356       -1.8462378000
 C          4.3049355692        2.0250419276       -1.1319807634
 H          5.3306889490        1.8386315108       -1.4070624559
 H          3.8791113166        3.4008468282       -2.7117374956
 H          1.5349937074        3.7400677221       -2.0180908046
 H          0.6404403557        2.5428895327       -0.0372120121
 H          2.1100970719        1.0535002480        1.2555532223
 H          4.4276300288       -1.3301514111       -0.7645093365
 H          3.3764281777       -2.0733186324        2.5705353817
 H          1.0291800084       -2.6447940416        3.1504071547
 H         -0.7421202296       -2.4441184854        1.4557327913
 H         -0.7127492652       -2.6158201453       -1.5576971479
 C         -0.1773633530       -0.6480673733       -2.2167585207
 C          0.4952287287       -1.1185734180       -3.4706546309
 C         -0.9435086935       -0.7008924469       -3.5029280506
 H         -1.2033524375        0.2272621990       -3.9891404286
 H         -1.6978223125       -1.4690541979       -3.5970673211
 H          1.2235618042       -0.4730603938       -3.9387387256
 H          0.7142795270       -2.1722584524       -3.5595349480
 H          0.0879347188        0.3299885936       -1.8313173794
