  62
        -98.94102830
 C         -2.3872365804       -0.2434992319        0.1720572504
 C         -1.5373022018        0.2245142079       -0.8566943380
 C         -1.4706726718        1.6833097426       -1.0215020991
 C         -2.1965316900        2.4728013452       -0.2099982004
 C         -2.2381561204        3.9720710029       -0.2772386401
 C         -1.2004059457        4.6185883414        0.6487477766
 C          0.2098465289        4.0492148332        0.4939200043
 H          0.2276768783        3.0179686729        0.8547445972
 H          0.8656099337        4.6234982222        1.1531170051
 C          0.7607996993        4.0918051139       -0.9381993687
 H          1.7962890397        4.4370203497       -0.9004136952
 H          0.1984434721        4.8126842375       -1.5335993799
 C          0.7702502597        2.7344271934       -1.6438906135
 H          1.2074854691        1.9912373397       -0.9725876999
 H          1.4168216933        2.8091827080       -2.5225960465
 C         -0.5935907240        2.2164433165       -2.1195035584
 H         -0.4144149095        1.3736972475       -2.7934167282
 H         -1.1099739491        2.9998421461       -2.6790181932
 H         -1.5162809424        4.4692433702        1.6839728779
 H         -1.1851510234        5.6923691794        0.4496468937
 H         -2.0654162514        4.2852607216       -1.3053530536
 H         -3.2344073117        4.2974337374        0.0290623798
 O         -2.9836690678        1.9875128645        0.7853183877
 C         -3.0850016328        0.6253314435        1.0087524054
 O         -3.8274408154        0.3121603783        1.9642338627
 H         -0.5496565441       -0.9439032886        1.8290045389
 C         -0.2633807396       -1.8015690438        1.2366322116
 C         -1.2017183634       -2.3952303071        0.3932048996
 C         -0.7908268824       -3.5005071618       -0.3410448603
 C          0.5099646517       -3.9707229284       -0.2493147898
 C          1.4451128931       -3.3402225071        0.5472734584
 C          1.0490844366       -2.2332162141        1.2886904204
 N          1.9628493634       -1.5081297440        2.0855487858
 S          2.2954304570        0.0534648223        1.5684598826
 O          3.2573473159        0.5709504445        2.5186537015
 O          1.0690906357        0.7944720925        1.4345383352
 C          3.0957826523       -0.1649101870       -0.0121456974
 C          4.4717405991       -0.0495533650       -0.0718579258
 C          5.1144210450       -0.2741417120       -1.2780271332
 C          4.3735868739       -0.6185134558       -2.3988441968
 C          2.9948961175       -0.7348584136       -2.3204708159
 C          2.3425025966       -0.5084807427       -1.1174133111
 H          1.2684036930       -0.5878221672       -1.0450386173
 H          2.4109908299       -1.0013537204       -3.1867518187
 H          4.8724088083       -0.7962064974       -3.3385589685
 H          6.1867539216       -0.1815311450       -1.3396734400
 H          5.0034870734        0.2224113664        0.8257329143
 H          2.8371387038       -1.9926735808        2.2399694386
 H          2.4657961318       -3.6892332594        0.5925227311
 H          0.8009773122       -4.8321647901       -0.8309731762
 H         -1.4618168676       -4.0053633751       -1.0110563018
 C         -2.5625870347       -1.7397964101        0.4166135280
 H         -2.9302654571       -1.8220060051        1.4542537121
 C         -3.7087536657       -2.2123237493       -0.4671865812
 C         -3.5738190991       -2.6758837018       -1.8832455638
 C         -4.0305634781       -3.6333302936       -0.8206805689
 H         -5.0726973233       -3.9179212463       -0.8178908464
 H         -3.3728629899       -4.4182947991       -0.4868852702
 H         -2.5800924272       -2.7576185612       -2.2922465003
 H         -4.3024405597       -2.3231494731       -2.5989668884
 H         -4.5728565064       -1.5828034799       -0.2616127870
 O         -0.8767580765       -0.5345946536       -1.6123584309
