  62
        -98.94142794
 C         -1.2370145406       -1.1226069533       -0.0636134692
 C         -1.6562636797       -0.0578591191        0.7666864843
 C         -2.7044677131        0.8220128811        0.2268457793
 C         -3.1608068665        0.6127380236       -1.0196697843
 C         -4.1814709300        1.4134801475       -1.7892462057
 C         -5.4448527946        1.8598401542       -1.0396264486
 C         -5.9271032467        0.8962802373        0.0547367113
 H         -6.9890636098        0.6933953397       -0.0953287256
 H         -5.3985549496       -0.0550845517       -0.0256798916
 C         -5.7519874268        1.4609244619        1.4666060295
 H         -6.4237499262        0.9278521314        2.1436032403
 H         -6.0556902808        2.5100139370        1.4636250051
 C         -4.3430104965        1.3503069308        2.0480222042
 H         -4.3266462121        1.8931935379        2.9960620449
 H         -4.1166985471        0.3044739049        2.2723440812
 C         -3.2137411618        1.8879721412        1.1536653213
 H         -3.5265138646        2.7767456433        0.6105231946
 H         -2.3709392994        2.1568105202        1.7967978816
 H         -6.2287508333        1.9816703375       -1.7890592547
 H         -5.2778042928        2.8419996529       -0.5992922304
 H         -3.6778656984        2.2932669699       -2.2014523207
 H         -4.4612653620        0.7789914623       -2.6338192767
 O         -2.6948684042       -0.3988707738       -1.8058353459
 C         -1.7267314157       -1.2844896912       -1.3580448337
 O         -1.3983882879       -2.1504263461       -2.1915327657
 H          0.8313067631        0.1721125199       -0.6157284110
 C          1.4645003350       -0.6740433332       -0.8325249604
 C          1.0893811389       -1.9391506668       -0.4026710619
 C          1.9052028371       -3.0158997032       -0.7278572460
 C          3.0547320606       -2.8212127784       -1.4742056492
 C          3.4314698539       -1.5558636030       -1.8867063724
 C          2.6250341924       -0.4714563006       -1.5608180515
 N          2.9636954528        0.8337959353       -1.9480713753
 S          2.6219751574        2.1069240825       -0.9184190906
 O          1.2163562618        2.4257992592       -0.9577271383
 O          3.5169030257        3.1600553632       -1.3505036293
 C          3.1100597861        1.5282481129        0.6974020358
 C          2.1695807615        1.2218321369        1.6588271063
 C          2.5990350152        0.7211549482        2.8784599271
 C          3.9515732630        0.5374035161        3.1162357169
 C          4.8859062236        0.8599260908        2.1431174868
 C          4.4632165113        1.3568352756        0.9218789693
 H          5.1585826074        1.6292321444        0.1445972706
 H          5.9383035031        0.7220530666        2.3316929075
 H          4.2781392029        0.1433600517        4.0656832454
 H          1.8635310326        0.4729174387        3.6271987744
 H          1.1197106785        1.3643854804        1.4549823262
 H          3.8686773633        0.9303312913       -2.3841600846
 H          4.3315842216       -1.4065907891       -2.4627885998
 H          3.6729094592       -3.6678855176       -1.7309491683
 H          1.6364363797       -4.0082439115       -0.4049665840
 C         -0.1599746379       -2.0662519447        0.4352349480
 H          0.0857185859       -1.7158520171        1.4500053845
 C         -0.6852755981       -3.4841157697        0.5238739032
 C         -0.1761832902       -4.4175066008        1.5804131433
 C         -1.5624838626       -3.8583029232        1.6800035518
 H         -2.4014422556       -4.5136298624        1.5001195118
 H         -1.7558909110       -3.0966285418        2.4214178197
 H         -0.0645873074       -5.4626298033        1.3338961764
 H          0.5698458373       -4.0411262417        2.2637527567
 H         -0.9365678821       -3.8941259058       -0.4477549679
 O         -1.1658680573        0.1566866775        1.9085303092
