  62
        -98.93901968
 C          2.4819323171        1.2489343469        0.3606114792
 C          2.5604247019        0.4355645958       -0.7925195218
 C          3.3322972172       -0.8189751100       -0.6714774143
 C          3.8941683940       -1.1240678026        0.5129201483
 C          4.6883459700       -2.3484227958        0.8847247075
 C          3.8050756607       -3.5883877419        1.0940740275
 C          2.7304933380       -3.7986415248        0.0303897555
 H          2.1140988150       -4.6461762421        0.3427895654
 H          2.0761804858       -2.9245279021       -0.0022187120
 C          3.2541141522       -4.0938135726       -1.3733614001
 H          3.8826782549       -4.9864703073       -1.3404507283
 H          2.3864757703       -4.3204694002       -1.9984836602
 C          4.0408727250       -2.9664343407       -2.0460232681
 H          4.1180677552       -3.2142847205       -3.1085693676
 H          5.0577970003       -2.9143655709       -1.6664488066
 C          3.3783965598       -1.5948052352       -1.9655811059
 H          3.8639272275       -0.9289494874       -2.6891637300
 H          2.3385834146       -1.6769118146       -2.3041548263
 H          3.3021032904       -3.4878617313        2.0591635036
 H          4.4499752937       -4.4675229368        1.1400983555
 H          5.1931451568       -2.1193221192        1.8258932879
 H          5.4520677231       -2.5399415320        0.1370949344
 O          3.7664293396       -0.3189894147        1.6078771117
 C          3.0619717014        0.8679715938        1.5685983251
 O          3.0179720773        1.4815670267        2.6554394504
 O          2.0115821627        0.7339028194       -1.8854558185
 C          1.7029061176        2.5520667680        0.3230149256
 C          0.2585966312        2.2623368242       -0.0082075601
 C         -0.4479185893        2.9048800353       -1.0153023370
 C         -1.7637728688        2.5610194427       -1.2754741058
 C         -2.4036506471        1.5829907123       -0.5369947627
 C         -1.7082828438        0.9394778802        0.4788894394
 C         -0.3919860937        1.2859077345        0.7369801428
 H          0.1519054745        0.7796615237        1.5264946875
 N         -2.3543977798       -0.0496143692        1.2458219306
 S         -3.0391154115       -1.3402836937        0.4124426375
 O         -3.0699524166       -2.4297452318        1.3646132938
 O         -2.3519505620       -1.5940745512       -0.8328871138
 C         -4.7055579264       -0.7985242865        0.0981568425
 C         -5.1842957086       -0.7543385552       -1.1964608227
 C         -6.4867479727       -0.3321710233       -1.4145509107
 C         -7.2822661285        0.0354804159       -0.3401613682
 C         -6.7866960469       -0.0169573516        0.9543563558
 C         -5.4862713703       -0.4391361929        1.1794580649
 H         -5.0631644004       -0.4982656010        2.1683278402
 H         -7.4082770657        0.2697673260        1.7871965974
 H         -8.2945681874        0.3651505424       -0.5127992868
 H         -6.8735847064       -0.2907582898       -2.4200727806
 H         -4.5260983479       -1.0435546464       -2.0003170539
 H         -1.7870375873       -0.3959862968        2.0067095057
 H         -3.4261827556        1.3099835336       -0.7405901910
 H         -2.2984248885        3.0622718554       -2.0677907081
 H          0.0347029363        3.6655850148       -1.6061558545
 H          1.7425354566        2.9571356284        1.3449268024
 C          2.3616312300        3.5370658119       -0.6188137274
 C          2.1995438257        5.0103313144       -0.3993426367
 C          3.5159980966        4.3513531350       -0.1200804041
 H          4.3417316768        4.5391432282       -0.7897545875
 H          3.8131941775        4.2113735451        0.9093410450
 H          2.1242068388        5.6552263224       -1.2616847034
 H          1.6037272023        5.3271592698        0.4431411436
 H          2.4114984529        3.1697550740       -1.6371412787
