  62
        -98.93351820
 C         -2.1574404521       -0.0268247840        0.4615224045
 C         -3.2936668678        0.5384438066        1.0925913926
 C         -4.4740707215        0.8103871882        0.2504540958
 C         -4.3960678447        0.5555675009       -1.0685164905
 C         -5.4686837622        0.7091589300       -2.1136400995
 C         -6.5210693571       -0.4098114909       -2.0505685279
 C         -6.9996345329       -0.7652023172       -0.6452304436
 H         -6.1420170817       -1.0624711354       -0.0388561606
 H         -7.6540997082       -1.6369838187       -0.7282339757
 C         -7.7754531732        0.3342154954        0.0763393835
 H         -8.1291508613       -0.0858581734        1.0214569232
 H         -8.6530481435        0.6012112448       -0.5165946435
 C         -6.9924806618        1.6112894665        0.3884878814
 H         -7.5843057669        2.1883750674        1.1049688199
 H         -6.8872749976        2.2334733972       -0.4961549103
 C         -5.6304770615        1.3810965488        1.0356734691
 H         -5.7539943698        0.7307862941        1.9093291669
 H         -5.2694891310        2.3353689937        1.4378930227
 H         -6.0834894309       -1.3097525830       -2.4898784553
 H         -7.3740094848       -0.1159035505       -2.6645144398
 H         -4.9693018360        0.6624991086       -3.0839277498
 H         -5.9357932683        1.6857940880       -2.0285076850
 O         -3.2654777015        0.0570945386       -1.6428782089
 C         -2.1265615626       -0.2492530544       -0.9155880201
 O         -1.1952146416       -0.6968144396       -1.6105188188
 O         -3.3302076967        0.8044444305        2.3239573089
 C         -0.9552049336       -0.3288909239        1.3384759863
 C          0.2994210745        0.2496183523        0.7397172639
 C          0.5710339085        1.6060498514        0.8901138943
 C          1.7112127722        2.1666406355        0.3448871603
 C          2.6053284531        1.3836067804       -0.3648354922
 C          2.3366880232        0.0324043969       -0.5286374170
 C          1.1978483954       -0.5293601357        0.0269875852
 H          1.0007327574       -1.5807280108       -0.1171315801
 N          3.2656175859       -0.7681099265       -1.2461699428
 S          4.5325504195       -1.3124063085       -0.2785642046
 O          5.2065258643       -2.3379342304       -1.0442653227
 O          4.0621222899       -1.7078279243        1.0322822080
 C          5.5712209817        0.1236213014       -0.1377917464
 C          6.3487922378        0.4837723531       -1.2210344814
 C          7.1400336863        1.6175979406       -1.1279115588
 C          7.1371789057        2.3682035715        0.0385802201
 C          6.3507802967        1.9924124064        1.1171061864
 C          5.5581447465        0.8586700596        1.0311153464
 H          4.9294286854        0.5288428689        1.8424188282
 H          6.3494251005        2.5777631045        2.0224787670
 H          7.7525695646        3.2513414916        0.1081629436
 H          7.7540364877        1.9128768704       -1.9634711487
 H          6.3226590766       -0.1321545007       -2.1046207089
 H          2.8223628466       -1.5684802216       -1.6774106315
 H          3.4913744341        1.8108074788       -0.8056471113
 H          1.9055235899        3.2205809329        0.4715603763
 H         -0.1298877241        2.2187498447        1.4404383528
 H         -1.1632435518        0.2090940645        2.2777351862
 C         -0.7984038016       -1.7974161885        1.7077795765
 C         -1.9984678690       -2.6264900699        2.0513427175
 C         -1.2165027405       -2.9197347598        0.8078610414
 H         -0.6018481876       -3.8085349866        0.7863341002
 H         -1.6510352432       -2.6703457443       -0.1476620813
 H         -1.9315869863       -3.3162480294        2.8789428820
 H         -2.9674207435       -2.1609825260        1.9447261461
 H          0.0944936380       -1.9661072810        2.3037770302
