  62
        -98.94054471
 C         -1.8405164968       -0.7413495857        0.6558975521
 C         -2.1404496143        0.5253403571        0.0940292950
 C         -3.5505254583        0.9384093303        0.1727701177
 C         -4.4515643262        0.1574325680        0.7930766707
 C         -5.9160507983        0.4544994815        0.9678862914
 C         -6.7799161579        0.0696589482       -0.2410230923
 C         -6.6258804614        0.9733484741       -1.4650588258
 H         -6.7588539335        2.0136188384       -1.1661438645
 H         -7.4386237226        0.7253147750       -2.1506483813
 C         -5.2904762776        0.8151170800       -2.2054273886
 H         -5.4753585447        0.7485064395       -3.2799538638
 H         -4.8162025975       -0.1218468714       -1.9043565704
 C         -4.3045812587        1.9626994820       -1.9855113285
 H         -4.7162161781        2.8843288045       -2.4029149648
 H         -3.3830388785        1.7322617962       -2.5264877925
 C         -3.9423763246        2.2112427112       -0.5152593411
 H         -4.7767969871        2.6833442758        0.0028967023
 H         -3.0827150145        2.8853296845       -0.4818479134
 H         -7.8234217213        0.1045452492        0.0803782102
 H         -6.5527706885       -0.9622188881       -0.5189249625
 H         -6.2502790376       -0.1279844938        1.8292509356
 H         -6.0514187459        1.5131628407        1.1913891189
 O         -4.1124782990       -1.0249322598        1.3718404163
 C         -2.8149847956       -1.5040617613        1.3084647171
 O         -2.6529842981       -2.6047316815        1.8719280539
 H          1.2472406104        0.2510446196       -0.8218812886
 C          1.3570596437        0.4051079276        0.2404335200
 C          0.5617872169       -0.3089566914        1.1226901574
 C          0.7013158838       -0.0691022249        2.4857422431
 C          1.6176831046        0.8553171370        2.9541370251
 C          2.4117458045        1.5646358828        2.0696290217
 C          2.2665231720        1.3425714135        0.7082529529
 N          3.1010272899        2.0467421551       -0.1959310905
 S          4.6597582799        1.4363494060       -0.2654726167
 O          5.2956964743        1.6483438144        1.0092673363
 O          5.2880207401        2.0556277157       -1.4102496030
 C          4.4270124525       -0.3093049150       -0.5524542821
 C          4.2224056105       -1.1416730839        0.5299863027
 C          3.9243091136       -2.4754045085        0.3014101620
 C          3.8332375895       -2.9502146131       -0.9982335806
 C          4.0454109007       -2.1022047449       -2.0747394085
 C          4.3376497788       -0.7661762567       -1.8522129493
 H          4.5078016747       -0.0726423015       -2.6603112801
 H          3.9758973460       -2.4762634492       -3.0836945675
 H          3.5941604200       -3.9878125709       -1.1723298158
 H          3.7544687326       -3.1360864413        1.1364386656
 H          4.3015403922       -0.7351410396        1.5250271981
 H          2.7157377528        2.0800423163       -1.1300194849
 H          3.1449603131        2.2769027837        2.4117443656
 H          1.7157505734        1.0247397352        4.0157727946
 H          0.0785413299       -0.6188144923        3.1783838059
 C         -0.4385844614       -1.3292843278        0.6444760936
 H         -0.4702144565       -2.1429101077        1.3860593418
 C         -0.0282915762       -1.9630559693       -0.6776861136
 C         -1.0060189720       -2.7877842932       -1.4585903886
 C         -0.5219972374       -1.4806549116       -2.0069301095
 H          0.1642368272       -1.4991521516       -2.8412182804
 H         -1.2031420119       -0.6446421408       -2.0230241459
 H         -2.0180895086       -2.8420273566       -1.0837990099
 H         -0.6608770236       -3.7012999307       -1.9181209489
 H          0.9949418746       -2.3259315310       -0.6443619898
 O         -1.2987751604        1.2832339218       -0.4521479721
