  62
        -98.93884233
 C         -1.2320819693       -0.9722151301        0.6132809700
 C         -1.9341795090       -0.7745969905       -0.5994899703
 C         -2.7137183191        0.4729764394       -0.6983569708
 C         -2.6650356895        1.3694286597        0.3006185790
 C         -3.3628220496        2.7034981996        0.3822253985
 C         -4.8515969695        2.7429670694       -0.0009107420
 C         -5.6293113895        1.4396947194        0.2332094481
 H         -5.0472452996        0.7590917396        0.8567792285
 H         -6.5485696996        1.6704935394        0.7749747478
 C         -6.0201212390        0.7348383490       -1.0687036418
 H         -6.8580976290        0.0634089690       -0.8660476319
 H         -6.3701479289        1.4857380488       -1.7805718821
 C         -4.9205695788       -0.1004956110       -1.7240013513
 H         -5.2865945585       -0.4334563013       -2.6982766813
 H         -4.7335783389       -0.9984083609       -1.1287935210
 C         -3.5744429788        0.6155293490       -1.9200969211
 H         -3.7200590688        1.6581676290       -2.1926503414
 H         -3.0408078985        0.1120528289       -2.7308940308
 H         -4.9486655892        3.0245996191       -1.0488247721
 H         -5.3071784297        3.5450619495        0.5819937377
 H         -3.2434404399        3.0242900099        1.4194890684
 H         -2.8209392695        3.4159169295       -0.2462984316
 O         -1.8992253498        1.1785979100        1.4114355992
 C         -1.1744904197        0.0176319501        1.5963263697
 O         -0.5250554100       -0.0190054096        2.6614199099
 O         -1.9271051187       -1.5864270007       -1.5596350801
 C         -0.4465643793       -2.2466164400        0.8861172505
 C          0.8342444209       -2.1884652201        0.0914288508
 C          0.9802822413       -2.7677717504       -1.1625067890
 C          2.1601082815       -2.6150612405       -1.8712606887
 C          3.2164508913       -1.8930596002       -1.3449421586
 C          3.0781587309       -1.3113188199       -0.0915946288
 C          1.8951098407       -1.4589819799        0.6157016309
 H          1.7795638704       -0.9874575696        1.5835933208
 N          4.1513988207       -0.5570060797        0.4407284314
 S          4.4031586507        0.9286347501       -0.2891694289
 O          4.6573001611        0.7169881098       -1.6903699288
 O          5.4544975405        1.5689350904        0.4666535312
 C          2.8703392306        1.8123955900       -0.0642596296
 C          2.7642756402        2.7064377803        0.9822121102
 C          1.5559335101        3.3484134502        1.1956706497
 C          0.4763781704        3.0765662399        0.3701333894
 C          0.5951868907        2.1679836097       -0.6699979003
 C          1.8028823009        1.5261249798       -0.8918100698
 H          1.9274833811        0.8162997696       -1.6940133396
 H         -0.2512785591        1.9443354895       -1.3013546605
 H         -0.4660717397        3.5704567999        0.5446434991
 H          1.4547619698        4.0513426504        2.0068675695
 H          3.6297079500        2.8881792405        1.5993364804
 H          4.0717293904       -0.4132826495        1.4385186313
 H          4.1346228614       -1.7518382503       -1.8912089984
 H          2.2582132418       -3.0652063307       -2.8474992186
 H          0.1593036915       -3.3160798906       -1.5938098391
 H         -0.1792370896       -2.2083378997        1.9508611306
 C         -1.2655624491       -3.4954444701        0.6391364806
 C         -0.7864431592       -4.8011992600        1.1956677010
 C         -1.9904654794       -4.1316056299        1.7852889905
 H         -2.9629530493       -4.5640640200        1.6032825504
 H         -1.8941292797       -3.6713684697        2.7581712404
 H         -0.9305181889       -5.6960640701        0.6100418312
 H          0.1291507107       -4.7932613297        1.7678282613
 H         -1.7605169889       -3.5060658604       -0.3229243996
