  62
        -98.93812935
 C         -1.7841297884       -1.3944457520        0.3568693371
 C         -1.3572883833       -0.2813422850       -0.4058101433
 C         -2.0179490278        1.0093262829       -0.1280920631
 C         -2.9655492929        1.0650843914        0.8243831557
 C         -3.7987711413        2.2523752635        1.2229337389
 C         -4.9128298847        2.5645651997        0.2055728987
 C         -4.5224382370        2.3978241082       -1.2618516960
 H         -4.1251705251        1.3925916452       -1.4145158647
 H         -5.4341384323        2.4800038112       -1.8593669536
 C         -3.5239789818        3.4237766989       -1.7925993435
 H         -3.3370951070        3.1875348538       -2.8430431115
 H         -3.9774957331        4.4168435726       -1.7498516057
 C         -2.1805251201        3.4830990195       -1.0655985794
 H         -2.2930287710        3.9464941782       -0.0889305354
 H         -1.5225810244        4.1382811141       -1.6445437381
 C         -1.4512589251        2.1482524681       -0.9391412102
 H         -1.2738695921        1.7426911538       -1.9415495895
 H         -0.4572617113        2.3348716575       -0.5102613564
 H         -5.7442290235        1.8838674935        0.4035032863
 H         -5.2633133780        3.5832624795        0.3780009282
 H         -4.2608371912        2.0079135105        2.1821352314
 H         -3.1529446337        3.1122162580        1.3793513643
 O         -3.3356712822       -0.0294060192        1.5500371573
 C         -2.7330883722       -1.2592052822        1.3702910844
 O         -3.1191778732       -2.1430702725        2.1641934669
 H          0.3695450987       -1.4155161794        1.9285582335
 C          0.9734122326       -1.8058029465        1.1168270625
 C          0.3675757778       -2.5640328764        0.1210332981
 C          1.1582291399       -3.0469702865       -0.9129967339
 C          2.5097093262       -2.7501271925       -0.9634455307
 C          3.0944008777       -1.9476373571       -0.0007745154
 C          2.3133138832       -1.4729268161        1.0440666590
 N          2.8984694499       -0.5692040939        1.9803697579
 S          2.5540412589        1.0284077539        1.5409294077
 O          3.2363851208        1.8545742186        2.5161779699
 O          1.1268610123        1.2545797303        1.4419694260
 C          3.3401918215        1.1703904337       -0.0447938275
 C          4.6780151240        1.5140890078       -0.0791840857
 C          5.3193598778        1.5843826421       -1.3049455183
 C          4.6152917941        1.3053464372       -2.4671544256
 C          3.2739910651        0.9594052513       -2.4127962497
 C          2.6229730596        0.8874039382       -1.1903471922
 H          1.5821773656        0.6081776371       -1.1189606197
 H          2.7244709179        0.7366149419       -3.3132073070
 H          5.1148279993        1.3565348306       -3.4218475236
 H          6.3625881410        1.8525749945       -1.3504084649
 H          5.1789444879        1.7227543850        0.8519055080
 H          2.5458954705       -0.7050878110        2.9195455751
 H          4.1367311012       -1.6774063202       -0.0487324116
 H          3.1085011692       -3.1265337633       -1.7781842645
 H          0.7086624941       -3.6285795814       -1.7008719317
 C         -1.1256607807       -2.7584430491        0.2138360017
 H         -1.3444245816       -3.2788544863        1.1616991253
 C         -1.6987125288       -3.6210940672       -0.9001553239
 C         -3.1110980463       -3.4369617218       -1.3671706789
 C         -1.9709251566       -3.0751751403       -2.2683144589
 H         -1.7743327056       -3.7079398407       -3.1213021960
 H         -1.7580663997       -2.0317661905       -2.4371488891
 H         -3.6928721128       -4.3172351952       -1.5962531571
 H         -3.6864012776       -2.6396558325       -0.9186586478
 H         -1.3449535733       -4.6457853102       -0.8421647276
 O         -0.4700316380       -0.3475547416       -1.2954016279
