  62
        -98.93461023
 C         -1.7178129612       -0.2565164067        0.4122647020
 C         -2.8982480747       -0.4276896267        1.1743848760
 C         -4.1681634369       -0.5618905294        0.4343540803
 C         -4.1417672140       -0.4829295389       -0.9088847297
 C         -5.3000854042       -0.5444624519       -1.8685903331
 C         -6.1123154429        0.7604290230       -1.9001945131
 C         -6.4048959802        1.3700735681       -0.5316180435
 H         -5.4624285651        1.5596949096       -0.0144868314
 H         -6.8843096154        2.3388925148       -0.6954337985
 C         -7.3202486829        0.5427928976        0.3678108007
 H         -8.2761762421        0.3895034460       -0.1380716333
 H         -7.5120602254        1.1341250132        1.2669305406
 C         -6.7769043406       -0.8196429288        0.8033870501
 H         -6.8622173891       -1.5499845637        0.0032476715
 H         -7.4124517434       -1.1774633193        1.6187719342
 C         -5.3506091268       -0.7939536429        1.3439439102
 H         -5.2787439225       -0.0348062749        2.1312808450
 H         -5.1521429384       -1.7480660331        1.8475638565
 H         -7.0503968837        0.5704639330       -2.4244409527
 H         -5.5461089424        1.4959608981       -2.4768572750
 H         -5.9365698755       -1.3918500186       -1.6316395228
 H         -4.8762249272       -0.7133254559       -2.8609251585
 O         -2.9853155650       -0.2792209195       -1.6007520910
 C         -1.7538523893       -0.1585248601       -0.9789535398
 O         -0.8064625119        0.0295800507       -1.7638508850
 O         -2.8996203205       -0.4585032146        2.4350373228
 C         -0.4077861356       -0.1122379084        1.1641236687
 C          0.3794016227        1.0593399419        0.6333989299
 C         -0.2310556652        2.3109256782        0.5852246459
 C          0.4457300826        3.4105795852        0.0978046522
 C          1.7591311936        3.2947950361       -0.3247802482
 C          2.3822498471        2.0562113749       -0.2673958461
 C          1.6901868307        0.9474418666        0.2006641352
 H          2.1873626538       -0.0073164477        0.2076283618
 N          3.7141725940        1.8927830893       -0.6814386283
 S          4.7515106921        1.0190555874        0.3010218721
 O          4.3967423425        1.1542057294        1.6950727551
 O          6.0759596108        1.4760390830       -0.0639167847
 C          4.5714667411       -0.6749629617       -0.2143428995
 C          4.6238689874       -0.9686732117       -1.5623544709
 C          4.5270604440       -2.2917611053       -1.9623348724
 C          4.3868104509       -3.2934765623       -1.0136571190
 C          4.3386775327       -2.9821657917        0.3367641998
 C          4.4324367731       -1.6603017688        0.7430098748
 H          4.3912174780       -1.3717972124        1.7814117146
 H          4.2266423094       -3.7619763991        1.0733724127
 H          4.3111500318       -4.3226160103       -1.3279166604
 H          4.5602050458       -2.5382949483       -3.0113086893
 H          4.7349421173       -0.1650805324       -2.2708404991
 H          4.1550125827        2.7326486596       -1.0278944780
 H          2.2932375058        4.1549602384       -0.6997297314
 H         -0.0473735216        4.3703420636        0.0546920809
 H         -1.2540109094        2.4058142250        0.9246527236
 H         -0.7127374217        0.1314695198        2.1965581418
 C          0.4078225505       -1.3942177269        1.2463059929
 C         -0.2455802071       -2.7389014691        1.1426630826
 C          0.6555681554       -2.2581263561        0.0471246613
 H          1.6266462080       -2.7189529528       -0.0596448335
 H          0.2141663735       -1.9479361868       -0.8865870795
 H          0.1044389530       -3.5282707695        1.7905802384
 H         -1.3094343238       -2.7661540642        0.9563512957
 H          1.2203575330       -1.3103271422        1.9624942091
