  62
        -98.94545180
 C         -2.6483966199       -1.0482149404        0.2676539900
 C         -2.5115831401       -0.2857964600       -0.9181334997
 C         -3.1085517606        1.0573637398       -0.8868727194
 C         -3.7430701008        1.4727952192        0.2243993607
 C         -4.3435878613        2.8353905190        0.4118517010
 C         -3.3315125417        3.8045540892        1.0388783013
 C         -1.9663647817        3.8049824199        0.3495996414
 H         -1.3433984320        4.5457525700        0.8563060716
 H         -1.4844963013        2.8347049300        0.4970264011
 C         -2.0130967117        4.1182778403       -1.1524063386
 H         -2.9616142519        4.5958485000       -1.4018555985
 H         -1.2179105820        4.8298819406       -1.3842619883
 C         -1.8007465712        2.9053617006       -2.0606581589
 H         -1.6331381413        3.2693926009       -3.0780246588
 H         -0.8953212911        2.3723246908       -1.7544523590
 C         -2.9627911109        1.9049106002       -2.1186848892
 H         -3.8925296611        2.4342255899       -2.3373300091
 H         -2.7595201106        1.2094551604       -2.9381944494
 H         -3.1857901717        3.5256549790        2.0851189712
 H         -3.7527597121        4.8109586690        1.0110489915
 H         -4.6771907614        3.2151236291       -0.5515908389
 H         -5.2046347413        2.7439485185        1.0759685809
 O         -3.8642623806        0.7066056889        1.3392009705
 C         -3.2989458901       -0.5577150209        1.3983255201
 O         -3.4382702200       -1.1332871712        2.4974858300
 H         -0.3969048601       -0.6996259499        1.5396044602
 C          0.1532659302       -1.3186266695        0.8394511101
 C         -0.5281130394       -2.2983526095        0.1268767298
 C          0.1894442909       -3.0860968990       -0.7624446204
 C          1.5459783109       -2.8768763685       -0.9458726802
 C          2.2146198205       -1.8879275584       -0.2483718399
 C          1.5082653601       -1.1024365589        0.6534564402
 N          2.1820748497       -0.0900195789        1.3694691105
 S          2.8598192493        1.1380012016        0.4354152809
 O          2.9336489288        2.2858976314        1.3139382312
 O          2.1393047693        1.3213758117       -0.8030285491
 C          4.5066866995        0.5457469223        0.1114662008
 C          5.3272931196        0.2893751524        1.1926045708
 C          6.6108330998       -0.1787209071        0.9616611107
 C          7.0499398599       -0.3785574466       -0.3389072193
 C          6.2149997598       -0.1123976166       -1.4133927193
 C          4.9289339197        0.3547452028       -1.1893018392
 H          4.2409429196        0.5683370728       -1.9918218092
 H          6.5581618600       -0.2680782862       -2.4235733393
 H          8.0490830300       -0.7440262162       -0.5161877194
 H          7.2631597798       -0.3866372371        1.7944189707
 H          4.9465734695        0.4622649120        2.1853340608
 H          1.6121589095        0.3218338207        2.0956139706
 H          3.2684901804       -1.7164144080       -0.3956669499
 H          2.0891156211       -3.4908026781       -1.6479417904
 H         -0.3159942688       -3.8544707591       -1.3238147506
 C         -2.0154232594       -2.4263535001        0.3542136297
 H         -2.1767162393       -2.7724969505        1.3857479196
 C         -2.6988477590       -3.3858686801       -0.5964285706
 C         -2.7299056484       -4.8529382502       -0.2934051310
 C         -3.9794325688       -4.0353531507       -0.1689264308
 H         -4.7604456187       -4.1670976408       -0.9025161009
 H         -4.3458382389       -3.8031740611        0.8207359992
 H         -2.6563363282       -5.5505115900       -1.1139080311
 H         -2.2511644284       -5.1861958103        0.6148791690
 H         -2.6167805690       -3.0746592898       -1.6312925805
 O         -1.9227690699       -0.7028542195       -1.9486820398
