  62
        -98.94416652
 C         -2.6201667548       -1.1061892311        0.2060936879
 C         -2.7576302266       -0.3119747725       -0.9581534241
 C         -3.5957655192        0.8878712636       -0.8171889801
 C         -4.1690582982        1.1573786066        0.3699173424
 C         -4.9982559605        2.3729676714        0.6657410371
 C         -4.1306875044        3.5198315084        1.2032357257
 C         -2.8839419588        3.7971531187        0.3628951160
 H         -2.3652258039        4.6427208396        0.8200743564
 H         -2.2125503861        2.9372487099        0.4259281158
 C         -3.1693518639        4.1081196927       -1.1131021220
 H         -4.2163487225        4.3871232300       -1.2364208495
 H         -2.5669956749        4.9685091183       -1.4118442055
 C         -2.8310309996        2.9698452438       -2.0777289075
 H         -1.8110138121        2.6226836541       -1.8933504569
 H         -2.8623540381        3.3670026737       -3.0956482875
 C         -3.7675766325        1.7558969972       -2.0319294461
 H         -4.8039002593        2.0860657650       -2.1268826916
 H         -3.5277778095        1.1200396844       -2.8890656384
 H         -3.8111258837        3.2668725769        2.2171083110
 H         -4.7437466703        4.4212667231        1.2561222843
 H         -5.7413049403        2.1075345508        1.4196137314
 H         -5.5109756873        2.6857323298       -0.2416594265
 O         -4.0128387364        0.3695674860        1.4656816878
 C         -3.2268330823       -0.7705811347        1.4152601493
 O         -3.1432637291       -1.3873616952        2.4980583136
 O         -2.2094020888       -0.5873546898       -2.0561609751
 C         -1.7663336060       -2.3599230488        0.1651885457
 C         -0.3478620172       -2.0178951974       -0.2247644101
 C          0.3979812563       -2.7705131353       -1.1221447269
 C          1.7023866006       -2.4154328398       -1.4208736404
 C          2.2907656653       -1.3102526365       -0.8349901805
 C          1.5589257022       -0.5576440062        0.0745238657
 C          0.2555118292       -0.9196336449        0.3761508436
 H         -0.3114613726       -0.3344839294        1.0914924734
 N          2.1480705156        0.5722311009        0.6723786152
 S          3.6162217504        0.3542082121        1.4625219065
 O          3.7455360695       -0.9919427213        1.9710857084
 O          3.6822436458        1.4195923196        2.4391829790
 C          4.8338849151        0.6499518257        0.1980813014
 C          5.7877761496       -0.3102810288       -0.0766949891
 C          6.7342449132       -0.0528139419       -1.0564026364
 C          6.7099417832        1.1534335546       -1.7395142998
 C          5.7460256628        2.1079834789       -1.4501412355
 C          4.7980661322        1.8577734134       -0.4708928847
 H          4.0351759902        2.5734398030       -0.2132447588
 H          5.7298475707        3.0446182319       -1.9837894096
 H          7.4465967322        1.3512329306       -2.5020764500
 H          7.4846016994       -0.7932103601       -1.2825396279
 H          5.7635103567       -1.2354971119        0.4765534397
 H          1.5132627056        1.0926506123        1.2606927601
 H          3.3032293830       -1.0261435686       -1.0711167985
 H          2.2676550840       -3.0068786280       -2.1247322910
 H         -0.0432019672       -3.6346017382       -1.5909048214
 H         -1.7466127747       -2.7487416912        1.1946656133
 C         -2.4075792413       -3.3969952649       -0.7338650065
 C         -2.2250263489       -4.8578167904       -0.4553585269
 C         -3.5493796910       -4.2057240939       -0.1983365831
 H         -4.3750049798       -4.4324624422       -0.8559429866
 H         -3.8441924508       -4.0271245765        0.8259508980
 H         -2.1446534104       -5.5364092650       -1.2911648893
 H         -1.6233661647       -5.1336710487        0.3976515630
 H         -2.4643705268       -3.0727395363       -1.7664641308
