  62
        -98.94617626
 C         -1.4007868402       -1.1438616498       -0.1581468600
 C         -2.5246095002       -1.1849882197        0.7048247700
 C         -3.2677431703        0.0720520803        0.8579471097
 C         -2.8298040204        1.1740083702        0.2217708696
 C         -3.5074140105        2.5123860602        0.2671226393
 C         -4.5128069704        2.6657286899       -0.8823080707
 C         -5.4716966103        1.4836430698       -1.0230065506
 H         -6.1562065503        1.7149614996       -1.8420078106
 H         -4.9050631502        0.5977404098       -1.3185552004
 C         -6.2795579004        1.1673508699        0.2434598294
 H         -7.3199925903        0.9933672598       -0.0392360206
 H         -6.2671728004        2.0258861001        0.9159402193
 C         -5.8109507103       -0.0765197399        1.0011465697
 H         -6.5747421303       -0.3313709998        1.7407706097
 H         -5.7332477702       -0.9188596700        0.3090317598
 C         -4.4781503603        0.0583144403        1.7486663297
 H         -4.5015271704        0.9459540704        2.3842256796
 H         -4.3676247503       -0.8201148696        2.3912519299
 H         -3.9579644804        2.7688643898       -1.8175118307
 H         -5.0837123905        3.5822148199       -0.7224754909
 H         -4.0145553505        2.6246920603        1.2233377093
 H         -2.7465741505        3.2889819902        0.1777499692
 O         -1.7364009603        1.1811561301       -0.5794714004
 C         -0.9964102302        0.0289570202       -0.7984599401
 O         -0.0324204702        0.1859945701       -1.5700212201
 H          1.8059331799       -1.5563738497       -1.3775058098
 C          1.8492338299       -1.6850145695       -0.3079813397
 C          0.7405106999       -2.1577800195        0.3772492103
 C          0.8198397698       -2.2935575393        1.7604850503
 C          1.9781020598       -1.9622109291        2.4385732903
 C          3.0761137498       -1.4695575991        1.7538698603
 C          3.0008156998       -1.3203113493        0.3757850702
 N          4.1002174498       -0.7788417694       -0.3265668198
 S          4.5233985697        0.7954371707        0.0606159399
 O          5.4639764497        1.2006448006       -0.9595518601
 O          5.0092308396        0.8234814910        1.4176515100
 C          3.0284694496        1.7592121706       -0.0693446103
 C          2.1511516896        1.7920416607        0.9955679197
 C          0.9762329095        2.5147353706        0.8702623395
 C          0.7011058495        3.1880546304       -0.3088904606
 C          1.5902326296        3.1415026303       -1.3699619206
 C          2.7635958296        2.4161275004       -1.2533380304
 H          3.4823536797        2.3543373103       -2.0549365104
 H          1.3662592196        3.6582023901       -2.2893993907
 H         -0.2179996905        3.7440640503       -0.4061620707
 H          0.2743369895        2.5407350107        1.6895467995
 H          2.3980263696        1.2589605409        1.8996042798
 H          3.9866123399       -0.8423088496       -1.3292047598
 H          3.9768733797       -1.1753087189        2.2676983303
 H          2.0261855198       -2.0792529489        3.5107995303
 H         -0.0475141901       -2.6477737292        2.3000158403
 C         -0.5746452901       -2.4109755997       -0.3148660897
 H         -1.1164608700       -3.1862756297        0.2426143504
 C         -0.4407499900       -2.8481567600       -1.7577368696
 C          0.0851582002       -4.2190260800       -2.0592557494
 C         -1.3604634499       -3.9022753501       -2.2937187295
 H         -1.7105085898       -3.8111451103       -3.3111080995
 H         -2.0914730299       -4.3202523101       -1.6172452695
 H          0.7292577502       -4.3492239701       -2.9154849693
 H          0.3368454102       -4.8504369198       -1.2205690493
 H         -0.1709075700       -2.0427398301       -2.4296250398
 O         -2.8861425701       -2.2238900396        1.3195137702
