  62
        -98.93930181
 C         -1.7435813501       -1.4747848996        0.0733908204
 C         -1.5274346298       -0.0931724796       -0.1387963498
 C         -2.5953427197        0.8099424206        0.3307631702
 C         -3.6805011198        0.2877875008        0.9279004602
 C         -4.8956487996        1.0225298311        1.4230946002
 C         -5.9903391297        1.0529528612        0.3429347002
 C         -5.8944492295        2.2203445711       -0.6386202899
 H         -6.6417757695        2.0514818911       -1.4174677199
 H         -6.1631091993        3.1448697312       -0.1230820900
 C         -4.5272393195        2.4084253708       -1.3012574399
 H         -4.1270743696        1.4377931307       -1.5996563999
 H         -4.6757424694        2.9910904507       -2.2125161500
 C         -3.5160205293        3.1375940907       -0.4042558800
 H         -3.0764834292        3.9685795306       -0.9596904401
 H         -4.0440400092        3.5769962009        0.4418709900
 C         -2.3500492795        2.2763978905        0.1035336801
 H         -1.9637906594        2.7111416306        1.0310526600
 H         -1.5306436495        2.3046695504       -0.6212131700
 H         -5.9482698998        0.1071884811       -0.2035694897
 H         -6.9649844096        1.1025998714        0.8328210602
 H         -4.6354413395        2.0256303111        1.7474573801
 H         -5.2704816497        0.4612255712        2.2815655702
 O         -3.8410080200       -1.0512127991        1.1211119403
 C         -2.8859617301       -1.9605485893        0.7083181704
 O         -3.1601176303       -3.1514309192        0.9611116805
 O         -0.5010360198        0.3697253002       -0.7002572298
 C         -0.6949847302       -2.4829797798       -0.3650294696
 C          0.6019906598       -2.1514010499        0.3303679304
 C          0.6385760898       -2.1985527098        1.7216924804
 C          1.7824506699       -1.8472779499        2.4119800903
 C          2.9145430100       -1.4339002302        1.7304045503
 C          2.8864678899       -1.3799579003        0.3439456803
 C          1.7400537799       -1.7498916702       -0.3485890997
 H          1.7367408299       -1.7002658002       -1.4258407897
 N          4.0301522200       -0.9551165805       -0.3607816598
 S          4.6744707403        0.5470705294        0.0033966201
 O          5.6249935603        0.8119143391       -1.0530950099
 O          5.2051665803        0.5198616394        1.3431841801
 C          3.3160809804        1.6967654796       -0.0959997900
 C          3.0550415105        2.3066649995       -1.3063207700
 C          1.9821062907        3.1768341097       -1.4007320901
 C          1.1871651007        3.4132939699       -0.2906857301
 C          1.4565403106        2.7848172000        0.9141979400
 C          2.5308377505        1.9170323598        1.0170412400
 H          2.7730050204        1.4153360399        1.9397429001
 H          0.8300813507        2.9633415502        1.7736184600
 H          0.3507789208        4.0905310701       -0.3644755401
 H          1.7654158207        3.6629474797       -2.3386331101
 H          3.7028796105        2.1008725094       -2.1435858700
 H          3.9301603700       -1.0386830606       -1.3627966398
 H          3.8107209400       -1.1399595003        2.2524826403
 H          1.7946380299       -1.8914098599        3.4908133403
 H         -0.2511204902       -2.5071040496        2.2544703004
 H         -1.0411084104       -3.4612534397       -0.0034787095
 C         -0.5967865903       -2.5266819699       -1.8750519296
 C         -0.0205131505       -3.7330124200       -2.5520613495
 C         -1.4912838504       -3.4573662798       -2.6347820295
 H         -1.9021127804       -3.1239734698       -3.5760336895
 H         -2.1640488005       -4.0789529197       -2.0619199994
 H          0.5770786295       -3.5928791902       -3.4402243295
 H          0.3081091894       -4.5478048501       -1.9247661494
 H         -0.4072385801       -1.5534736300       -2.3129036197
