  62
        -98.93672487
 C         -2.5671204266       -0.1172135806        0.0578474560
 C         -2.4088235078        0.9682544788        0.9468064124
 C         -2.0188927315        2.2652337597        0.3629133186
 C         -1.8100589144        2.3386591697       -0.9646864902
 C         -1.3879863289        3.5302247813       -1.7840980487
 C          0.1068168706        3.8504521029       -1.6438090511
 C          0.6267245600        3.8606083555       -0.2093851379
 H          0.4923979456        2.8662225296        0.2211641470
 H          1.7044145304        4.0412426720       -0.2544858854
 C          0.0131338140        4.9220344072        0.7016352487
 H          0.1751180758        5.9072678512        0.2585793208
 H          0.5606353042        4.8886994911        1.6469428466
 C         -1.4774318179        4.7686196420        1.0164173241
 H         -2.0954051196        5.1333265790        0.2002419415
 H         -1.6938007721        5.4063819962        1.8784540695
 C         -1.9028357197        3.3556800898        1.4005465066
 H         -1.2222755058        2.9713906879        2.1692649010
 H         -2.8858751891        3.4036346841        1.8844505136
 H          0.6693674041        3.0886560483       -2.1904473679
 H          0.2963094478        4.8180949140       -2.1130866218
 H         -1.5915384803        3.2765558029       -2.8271403019
 H         -1.9927110496        4.3953848811       -1.5282107991
 O         -1.9490815205        1.2556657425       -1.7831229474
 C         -2.2959560672        0.0082380649       -1.3040316684
 O         -2.3477224998       -0.8836183823       -2.1736256286
 O         -2.5819839367        0.8626202246        2.1935389952
 C         -2.8960682365       -1.4919982285        0.6176499373
 C         -1.6895339815       -2.3686274303        0.3890061083
 C         -1.7120794414       -3.5862774714       -0.2768050721
 C         -0.5327562027       -4.2624692265       -0.5444161844
 C          0.6902805678       -3.7380067772       -0.1654556803
 C          0.7163693487       -2.5394192393        0.5305249258
 C         -0.4624908371       -1.8770718563        0.8177917727
 H         -0.4254064542       -0.9282508281        1.3395276457
 N          1.9733533053       -1.9428909110        0.8657626936
 S          2.2903392591       -0.6836708815       -0.2279732415
 O          1.5382059228        0.4995154236        0.1342188097
 O          2.0969038851       -1.1962597575       -1.5608857522
 C          4.0283093143       -0.4084692025        0.0640190311
 C          4.4504002081        0.7348971642        0.7130082462
 C          5.8048024408        0.9066782241        0.9552346881
 C          6.7069253401       -0.0648828909        0.5502459162
 C          6.2670466620       -1.2086716480       -0.1000676746
 C          4.9152866279       -1.3850116335       -0.3465919648
 H          4.5255640054       -2.2515814931       -0.8541414134
 H          6.9717625011       -1.9615700459       -0.4142580541
 H          7.7597081776        0.0705717355        0.7414844215
 H          6.1488932249        1.7958212431        1.4586569970
 H          3.7122871749        1.4643346044        1.0064660581
 H          1.9372948221       -1.5203317805        1.7860741201
 H          1.6162022523       -4.2326975727       -0.4081902432
 H         -0.5675913419       -5.1999990076       -1.0782537014
 H         -2.6520557834       -3.9940743594       -0.6114946218
 H         -3.0229812903       -1.3463714744        1.7006088978
 C         -4.1798181167       -2.0416842958        0.0383006274
 C         -4.9618316282       -3.0712068502        0.7969133248
 C         -5.4830499132       -1.6715752556        0.6784554123
 H         -6.3350125716       -1.4880952537        0.0414666862
 H         -5.4441277958       -1.0339984202        1.5496211101
 H         -5.4603766237       -3.8511138664        0.2418122293
 H         -4.5733425777       -3.3879409092        1.7528883012
 H         -4.1536551111       -2.1081788827       -1.0432326459
