  62
        -98.94848829
 C         -2.3482038205       -0.6514673298        0.1727988496
 C         -1.5443549302       -0.0338179501       -0.8148386504
 C         -1.7094941101        1.4189010298       -0.9678221408
 C         -2.5710424001        2.0737848601       -0.1701699611
 C         -2.8395217600        3.5498137201       -0.2178608915
 C         -1.9347169301        4.3269423303        0.7467754085
 C         -0.4508189001        3.9793232601        0.6253432988
 H          0.0924051798        4.6329014702        1.3123976488
 H         -0.2847127103        2.9555508402        0.9700354291
 C          0.1264268702        4.1327175897       -0.7887239211
 H         -0.5223352697        4.7713685296       -1.3902374614
 H          1.0960849002        4.6297868296       -0.7147070910
 C          0.3610315902        2.8058880995       -1.5132332307
 H          0.8886299000        2.1250792596       -0.8405261605
 H          1.0113407804        2.9937609292       -2.3720928806
 C         -0.8965020598        2.0976830995       -2.0341959708
 H         -1.5114231796        2.8046982594       -2.5958619111
 H         -0.5741340497        1.3049570293       -2.7156216505
 H         -2.0755193500        5.3943524302        0.5635704482
 H         -2.2521328103        4.1131983006        1.7701899085
 H         -2.6903414098        3.9050094099       -1.2359154516
 H         -3.8808002900        3.7152073903        0.0658020982
 O         -3.2948901304        1.4559496904        0.7990066089
 C         -3.1809856706        0.0920895905        1.0112295293
 O         -3.8681849408       -0.3375046792        1.9609087593
 O         -0.7373804801       -0.6582646104       -1.5521258201
 C         -2.2632970807       -2.1445410398        0.4460991500
 C         -0.8163070807       -2.5741174199        0.4478321204
 C         -0.3123339707       -3.6302189501       -0.3000259192
 C          1.0365542593       -3.9399252603       -0.2557173889
 C          1.9122394492       -3.1894413302        0.5068100611
 C          1.4163244192       -2.1300095799        1.2581761807
 C          0.0598586192       -1.8554039798        1.2525577404
 H         -0.3121614308       -1.0308014296        1.8441664801
 N          2.2667571191       -1.3023580598        2.0230977707
 S          2.3855072094        0.2983399501        1.5341477803
 O          3.2960515392        0.9146883202        2.4760395303
 O          1.0725788594        0.8808737202        1.4433560199
 C          3.1715335697        0.2162398596       -0.0663214795
 C          2.4462175598       -0.2065333306       -1.1625829996
 C          3.0965237300       -0.3237334510       -2.3823225294
 C          4.4454817001       -0.0230793411       -2.4855280392
 C          5.1585513399        0.3984408191       -1.3731054592
 C          4.5184004497        0.5148326394       -0.1504166994
 H          5.0288622296        0.8398229096        0.7418613207
 H          6.2075147300        0.6340159289       -1.4539071191
 H          4.9427506003       -0.1171846214       -3.4381117491
 H          2.5350140902       -0.6522532611       -3.2420951794
 H          1.3941446998       -0.4302252005       -1.0700639097
 H          3.1988139390       -1.6772210799        2.1391785409
 H          2.9690155092       -3.4111172503        0.5166935613
 H          1.4138644293       -4.7632295604       -0.8428441986
 H         -0.9696210606       -4.1984035902       -0.9373119392
 H         -2.6503391009       -2.2673958295        1.4718817500
 C         -3.1465682806       -2.9930307199       -0.4574760999
 C         -4.3678291504       -2.4176030499       -1.1088350503
 C         -3.1831298503       -2.7979820703       -1.9424161400
 H         -3.2622864702       -3.6713016504       -2.5731157498
 H         -2.5704921501       -2.0123171204       -2.3546468501
 H         -5.2554138405       -3.0303497599       -1.1606116503
 H         -4.5720473203       -1.3679653899       -0.9531435006
 H         -3.2370655808       -4.0123906298       -0.0950809797
