  62
        -98.94446998
 C          2.6538180909        1.2959250710        0.1174989699
 C          2.5697161445        0.2930290012       -0.8786309284
 C          3.5599797201       -0.7902716361       -0.7823769156
 C          4.4739354445       -0.7679027517        0.2043639461
 C          5.5011076382       -1.8339707414        0.4495938188
 C          4.9735889105       -2.8990188269        1.4211427847
 C          3.5861117545       -3.4314334037        1.0619140615
 H          3.3314187740       -4.1983560805        1.7966179119
 H          2.8529997244       -2.6284117003        1.1712549731
 C          3.4788129307       -4.0229531955       -0.3505364205
 H          2.9281701778       -4.9643287854       -0.2947675582
 H          4.4741298419       -4.2512200168       -0.7337585077
 C          2.7406068881       -3.1370370825       -1.3561876524
 H          2.5322220156       -3.7356830226       -2.2473428512
 H          1.7767349920       -2.8307970978       -0.9392171452
 C          3.4918135431       -1.8803925478       -1.8144807116
 H          4.4927258724       -2.1539937392       -2.1545331549
 H          2.9437894903       -1.4581096078       -2.6620055580
 H          4.9228543949       -2.4613932728        2.4206916110
 H          5.6858939075       -3.7255375737        1.4472501305
 H          5.7731882029       -2.2942505829       -0.4981299591
 H          6.3858210836       -1.3654493733        0.8837887079
 O          4.5337229315        0.2199652153        1.1328449678
 C          3.6191084228        1.2581603174        1.1270884839
 O          3.7696540306        2.0789060411        2.0536995287
 H         -0.4141882730        1.7162920572       -1.4739262559
 C         -0.6267789127        1.5419213449       -0.4313124241
 C          0.3122965861        1.8808265691        0.5294481299
 C          0.0268080434        1.6118493200        1.8654367072
 C         -1.1707505914        1.0239126175        2.2261540131
 C         -2.1042207280        0.6811716245        1.2627085840
 C         -1.8205477270        0.9285935107       -0.0729719950
 N         -2.7548614706        0.5708073296       -1.0600806391
 S         -3.4312548149       -0.9642024538       -0.9897399565
 O         -2.5562330236       -1.9108749394       -0.3377059590
 O         -3.8161663543       -1.2719041354       -2.3501248232
 C         -4.9062297806       -0.7239952665       -0.0192723423
 C         -5.1523542951       -1.5316386296        1.0735686383
 C         -6.3134080938       -1.3348525220        1.8052373554
 C         -7.2038278678       -0.3399172920        1.4321653356
 C         -6.9432971088        0.4613660563        0.3303784342
 C         -5.7852118844        0.2690386575       -0.4056348080
 H         -5.5472914056        0.8675550343       -1.2689791229
 H         -7.6380083439        1.2342538046        0.0435093777
 H         -8.1060620826       -0.1882457788        2.0033816779
 H         -6.5172899884       -1.9572335139        2.6617622658
 H         -4.4286082500       -2.2892312529        1.3296391224
 H         -2.4418322865        0.7758940879       -1.9984955344
 H         -3.0345244178        0.2100021102        1.5351840286
 H         -1.3797402823        0.8255989450        3.2665036620
 H          0.7664307876        1.8574982694        2.6152331308
 C          1.6625665980        2.4490930096        0.1665125354
 H          1.9933756654        3.0938896700        0.9912894498
 C          1.6673623243        3.2573689824       -1.1139615013
 C          1.0171974519        4.6072701042       -1.1290449504
 C          2.5098601326        4.4932214321       -1.1945598045
 H          3.0052182339        4.7178480678       -2.1273173772
 H          3.0835276667        4.7643558392       -0.3202866838
 H          0.4857530697        4.9145712034       -2.0167336030
 H          0.5757205741        4.9562341844       -0.2078965469
 H          1.5988648908        2.6500068772       -2.0077177020
 O          1.7223901014        0.2931782489       -1.8110732565
