  62
        -98.94408066
 C         -1.4897937295       -1.5184944941        0.3778290858
 C         -1.7748826609       -0.3490698825        1.1245224520
 C         -2.9179268443        0.4442447306        0.6596755176
 C         -3.5961492218        0.0592301371       -0.4366620250
 C         -4.7895138687        0.7577324302       -1.0304972994
 C         -4.4309387947        1.9296566748       -1.9548044550
 C         -3.9154683737        3.1837794062       -1.2476967742
 H         -3.9136007887        3.9881236537       -1.9858677680
 H         -4.6136637214        3.4669948187       -0.4594364976
 C         -2.5026636032        3.0469579896       -0.6628057084
 H         -1.9152784698        3.9314821550       -0.9171908651
 H         -1.9999148670        2.1898477939       -1.1170422515
 C         -2.4570160453        2.8968698265        0.8573179764
 H         -1.4144741257        2.7633203524        1.1527915974
 H         -2.8329035252        3.8077982572        1.3278828272
 C         -3.2522096742        1.7036922812        1.4003169041
 H         -2.9766868100        1.5559282310        2.4473821747
 H         -4.3222203015        1.9032344621        1.3455146141
 H         -3.6878265200        1.5876296913       -2.6788765476
 H         -5.3350351023        2.1957918375       -2.5074262144
 H         -5.4441354169        1.1088028234       -0.2323091133
 H         -5.3269713211        0.0091244357       -1.6165783848
 O         -3.2726281711       -1.0557745927       -1.1433022310
 C         -2.2156461095       -1.8701144560       -0.7606359821
 O         -2.0405731056       -2.8547608617       -1.5023639290
 O         -1.1125515512        0.0087661755        2.1349178109
 C         -0.3382436277       -2.4021899254        0.8262310044
 C          0.7457979840       -2.3794016169       -0.2221992509
 C          1.0299016064       -3.4590732756       -1.0479992933
 C          2.0135780835       -3.3588149992       -2.0158819895
 C          2.7490522933       -2.1972243358       -2.1585220533
 C          2.4797814884       -1.1130435133       -1.3303015736
 C          1.4739590654       -1.2053019052       -0.3820415604
 H          1.2591127217       -0.3565766744        0.2527156219
 N          3.2160200013        0.0776140860       -1.4439683557
 S          3.7876212580        0.8198512740       -0.0524514453
 O          5.0099222417        1.4766774646       -0.4688994010
 O          3.9106601362       -0.1200522900        1.0361404139
 C          2.5898516606        2.0783012887        0.3273448958
 C          2.0335696694        2.1429896912        1.5884772022
 C          1.1690813518        3.1843579975        1.8864948050
 C          0.8760648067        4.1358794662        0.9215292637
 C          1.4342655949        4.0499110880       -0.3450939747
 C          2.3035314323        3.0147422552       -0.6467601786
 H          2.7697547217        2.9219388181       -1.6134778514
 H          1.1988177995        4.7887882545       -1.0940952937
 H          0.2065152010        4.9475941994        1.1591361358
 H          0.7261181115        3.2430551538        2.8680058956
 H          2.2811104444        1.3806826648        2.3102438696
 H          3.9301282570        0.0554566920       -2.1581906420
 H          3.5270128556       -2.1253292428       -2.9038727580
 H          2.2177060212       -4.2012036426       -2.6594378339
 H          0.4701823687       -4.3734340539       -0.9452695597
 H          0.0609791893       -1.9229610726        1.7316652131
 C         -0.8194034302       -3.7922680519        1.1844131673
 C          0.0408949015       -4.6752807377        2.0364046646
 C         -1.2162354424       -4.0848430440        2.5989542553
 H         -2.0597469266       -4.7360480875        2.7727418655
 H         -1.1286290379       -3.2832498474        3.3177598806
 H          0.0622767268       -5.7339031459        1.8271161310
 H          0.9854684254       -4.2739358992        2.3721364655
 H         -1.4065629748       -4.2544960937        0.3996966887
