  62
        -98.93400038
 C         -2.2175294414       -0.9126866282        0.0942716863
 C         -2.4810650399        0.1852864430        0.9439085649
 C         -3.1703579975        1.3393800685        0.3409720657
 C         -3.4897165828        1.3063183795       -0.9666032073
 C         -4.1545342292        2.3357778381       -1.8567501222
 C         -4.8745906993        3.5406940017       -1.2568299833
 C         -6.1463277738        3.2030224825       -0.4793359915
 H         -6.5178483619        4.1200986849       -0.0169707217
 H         -6.9040718686        2.8566952436       -1.1866670808
 C         -5.9967116945        2.1297313728        0.5960029416
 H         -6.9745166903        1.9866966140        1.0639675024
 H         -5.7215772132        1.1805121674        0.1316548697
 C         -4.9946646875        2.4491175419        1.7035666218
 H         -5.1056198934        1.6848446949        2.4775480072
 H         -5.2364482654        3.4150600659        2.1511252695
 C         -3.5168022053        2.4626148899        1.2758094931
 H         -2.9053953362        2.3154596972        2.1710311055
 H         -3.2384187940        3.4213416097        0.8448401334
 H         -5.1618719193        4.1799629411       -2.0960702317
 H         -4.1929933316        4.1191733257       -0.6403273678
 H         -3.3681949707        2.6999763615       -2.5270905724
 H         -4.8560842251        1.7759514598       -2.4834094214
 O         -3.1761624232        0.2379224871       -1.7571757255
 C         -2.5428823992       -0.8894705643       -1.2607866961
 O         -2.3339521906       -1.7748981913       -2.1102739897
 O         -2.1434535725        0.2092116616        2.1594504568
 C         -1.5223930365       -2.1356403956        0.6649383036
 C         -0.1693961311       -2.2996667476        0.0161166665
 C          0.2532895015       -3.4672924106       -0.6029861379
 C          1.5098009824       -3.5357590120       -1.1813224602
 C          2.3682660333       -2.4528633830       -1.1532498484
 C          1.9608396255       -1.2828601228       -0.5235800477
 C          0.7040248880       -1.2187512023        0.0580215691
 H          0.3840822179       -0.3083644984        0.5507474077
 N          2.8160676564       -0.1604175645       -0.4967506738
 S          4.3980139195       -0.4159991020        0.0440100962
 O          5.1297596714       -1.1057401877       -0.9876578140
 O          4.3842290208       -1.0532810255        1.3430823278
 C          4.9825429339        1.2611155044        0.1789754894
 C          5.0106422574        1.8760574356        1.4159310116
 C          5.4485727126        3.1884667436        1.5017086454
 C          5.8444926396        3.8602529534        0.3550447932
 C          5.8099529083        3.2292329716       -0.8798024261
 C          5.3752975567        1.9167932698       -0.9723663965
 H          5.3402796965        1.3834051687       -1.9078190262
 H          6.1207576615        3.7545446332       -1.7684546711
 H          6.1852962683        4.8811677543        0.4251104839
 H          5.4792935932        3.6804511285        2.4605936732
 H          4.7009975768        1.3132140027        2.2821150360
 H          2.4027215624        0.5996429343        0.0281756271
 H          3.3487646884       -2.5008877324       -1.5978471695
 H          1.8246820627       -4.4479618525       -1.6655916423
 H         -0.4004295191       -4.3229818976       -0.6396923345
 H         -1.3592106989       -1.9082090313        1.7290999599
 C         -2.4097319324       -3.3568669004        0.5595736645
 C         -2.2401411098       -4.4936323237        1.5212107681
 C         -3.4370760672       -3.5980576254        1.6233590118
 H         -4.4008355079       -3.9868761216        1.3307417320
 H         -3.4812540916       -2.8925003428        2.4402859844
 H         -2.3839567546       -5.5006553405        1.1600434681
 H         -1.4709942707       -4.4009712659        2.2731411415
 H         -2.6868806674       -3.5858372269       -0.4630375688
