  62
        -98.94909308
 C          2.0113964770        0.6555968586        0.5625499985
 C          1.4463492851       -0.3946760160        1.3251626842
 C          1.8930382136       -1.7528210799        0.9953143536
 C          2.7875730239       -1.9266100326        0.0062052021
 C          3.3307014793       -3.2530631945       -0.4395702251
 C          2.5104991574       -3.8465229089       -1.5920823297
 C          1.0023525262       -3.8582766966       -1.3415019692
 H          0.6244642553       -2.8327306136       -1.3277767835
 H          0.5353011755       -4.3524310174       -2.1970476573
 C          0.5750821109       -4.5675220096       -0.0489062987
 H          1.3736698285       -5.2245481007        0.2991678436
 H         -0.2913608067       -5.1948557385       -0.2692347321
 C          0.1609617040       -3.6181273052        1.0771222954
 H         -0.5295103072       -2.8737755164        0.6712871635
 H         -0.3789101148       -4.1962748902        1.8323034715
 C          1.3083271186       -2.8874899431        1.7881184080
 H          0.9068381440       -2.4405522817        2.7024960660
 H          2.0831774006       -3.6042673394        2.0689883386
 H          2.8581482486       -4.8662484639       -1.7709007312
 H          2.7012995562       -3.2590617359       -2.4932885639
 H          4.3576277481       -3.1034525464       -0.7785590464
 H          3.3345779550       -3.9379188507        0.4064228228
 O          3.2904587497       -0.8987469873       -0.7230561462
 C          2.8879192136        0.4096628609       -0.4938683649
 O          3.3903891343        1.2383775421       -1.2771714229
 H         -0.7362379188        0.9674552318        0.1801772656
 C         -0.4874175730        1.7406405103       -0.5282154251
 C          0.6705972009        2.4841541209       -0.3323753647
 C          0.9801119042        3.4878954082       -1.2387965263
 C          0.1619291232        3.7069714897       -2.3348878252
 C         -0.9561902338        2.9249890090       -2.5578410978
 C         -1.2820107416        1.9251956001       -1.6455026233
 N         -2.4088397472        1.1158875700       -1.8330754584
 S         -2.4943028255       -0.4491133175       -1.2386071274
 O         -1.1927963306       -1.0586841667       -1.1119677481
 O         -3.4218372649       -1.1115527445       -2.1332520486
 C         -3.2939093004       -0.2390216430        0.3391453783
 C         -4.6213557061        0.1468722109        0.3113610926
 C         -5.2929368424        0.3408831928        1.5061798070
 C         -4.6292189829        0.1458123217        2.7087232477
 C         -3.3000716431       -0.2446366857        2.7205466605
 C         -2.6215121099       -0.4408016831        1.5265340244
 H         -1.5817634161       -0.7316946443        1.5232140659
 H         -2.7748006494       -0.3950722538        3.6502216198
 H         -5.1494327549        0.2982268280        3.6412891112
 H         -6.3276613591        0.6434657218        1.4980916282
 H         -5.1008237945        0.2749904323       -0.6448166815
 H         -2.8655253882        1.2117680325       -2.7272850800
 H         -1.5708649127        3.0790066960       -3.4317595774
 H          0.4127497645        4.4856979592       -3.0394607633
 H          1.8686697985        4.0816964467       -1.1021974602
 C          1.5462190274        2.0802251008        0.8282417088
 H          0.9163684276        2.0185686605        1.7272072381
 C          2.6991659531        3.0194410112        1.0998654784
 C          2.4460420689        4.3122533237        1.8147655068
 C          3.1746787401        3.2022689811        2.5089803207
 H          4.2346841873        3.3089728014        2.6839201088
 H          2.6577253090        2.6565031894        3.2846711631
 H          1.4321903846        4.5218743927        2.1202351146
 H          3.0059960990        5.1851210330        1.5157378610
 H          3.4505219020        3.0043636337        0.3195778932
 O          0.6107265596       -0.2035750823        2.2505386998
