  62
        -98.94127065
 C         -1.8361430793       -0.9364369033        0.7051522570
 C         -2.0875685405        0.4534366858        0.8616503892
 C         -3.4743649631        0.8917981344        0.6788209800
 C         -4.4272862598       -0.0171597213        0.4051217196
 C         -5.8952403486        0.2608473985        0.2271041574
 C         -6.2777857158        0.7186029675       -1.1869265555
 C         -5.8474001154        2.1409056600       -1.5477072223
 H         -6.3642983990        2.4071701247       -2.4718745800
 H         -6.1887784972        2.8295394288       -0.7741819738
 C         -4.3364821997        2.3096168237       -1.7609215140
 H         -3.8774674789        1.3293424481       -1.9095894886
 H         -4.1598209783        2.8858430797       -2.6719440098
 C         -3.6104179388        3.0277016645       -0.6231665654
 H         -2.5445261742        3.0570390576       -0.8630190626
 H         -3.9691661361        4.0568818841       -0.5520687337
 C         -3.7685088986        2.3597999975        0.7490868480
 H         -3.0476836718        2.8104229857        1.4354251454
 H         -4.7734819503        2.5278580268        1.1358430559
 H         -5.8545881498        0.0155813019       -1.9081791061
 H         -7.3658654385        0.6596577878       -1.2650744763
 H         -6.4163693155       -0.6753684485        0.4386007339
 H         -6.2167215840        1.0089047928        0.9523886559
 O         -4.1524033643       -1.3400435783        0.2757128334
 C         -2.8587477428       -1.8319186370        0.3911638172
 O         -2.7839813286       -3.0617912976        0.1964160753
 O         -1.1898530484        1.2877568927        1.1532962626
 C         -0.3978540124       -1.3810993006        0.8957648081
 C          0.3470183658       -1.5131816903       -0.4113590680
 C         -0.1002198117       -2.3483398849       -1.4293238035
 C          0.6288454917       -2.4748206043       -2.5975629724
 C          1.8248662089       -1.7977507482       -2.7618286586
 C          2.2829119203       -0.9651676382       -1.7481070434
 C          1.5320620762       -0.8151771733       -0.5908410276
 H          1.8821986555       -0.1500760777        0.1834072697
 N          3.4899391603       -0.2642665282       -1.8761005879
 S          4.5035009026       -0.1073829635       -0.5512191995
 O          5.8135392089        0.1165769744       -1.1240372162
 O          4.3832916672       -1.2331530607        0.3447431655
 C          3.9634546883        1.3862667348        0.2513460729
 C          3.9020659349        2.5458292220       -0.4956573406
 C          3.4996422395        3.7186383745        0.1221130296
 C          3.1695574241        3.7129376992        1.4689921531
 C          3.2408047754        2.5415369803        2.2065013657
 C          3.6427584480        1.3652892903        1.5939438239
 H          3.7082577503        0.4312721770        2.1303974140
 H          2.9813763197        2.5382140639        3.2531482421
 H          2.8534606552        4.6261479951        1.9480306259
 H          3.4421916321        4.6326209263       -0.4468393283
 H          4.1702502347        2.5113238861       -1.5384116907
 H          4.0055884714       -0.4549755422       -2.7228678505
 H          2.4004863242       -1.9131971389       -3.6678260233
 H          0.2699247289       -3.1214585454       -3.3842910445
 H         -1.0199365486       -2.8965722505       -1.2940808039
 H          0.0788215745       -0.5670746719        1.4592516316
 C         -0.2458814949       -2.6638069580        1.6930945260
 C          1.1071214892       -3.0210361531        2.2298123145
 C          0.0185859088       -2.5898098552        3.1653861355
 H         -0.4326560936       -3.3311967025        3.8077063938
 H          0.0885041760       -1.6089058757        3.6125025469
 H          1.4004495134       -4.0598762464        2.2278611535
 H          1.9240418285       -2.3418765795        2.0327509366
 H         -0.8728892416       -3.4695242562        1.3343667433
