  62
        -98.94087697
 C         -2.5815208667       -0.2265379217        0.5979803464
 C         -2.4353200428        0.3957698366       -0.6673035596
 C         -2.2420306261        1.8512776946       -0.6464285996
 C         -2.1637078372        2.5029213307        0.5265137920
 C         -1.9438713637        3.9799353106        0.7079204879
 C         -0.4692229117        4.3963510491        0.6150360344
 C          0.1210860331        4.4035795033       -0.7959690694
 H         -0.5411774009        4.9545931710       -1.4650202330
 H          1.0629067025        4.9533136631       -0.7419071552
 C          0.4025913212        3.0103476551       -1.3758490103
 H          0.4536322394        2.2768335347       -0.5671664314
 H          1.3835534964        3.0146426529       -1.8579091582
 C         -0.6048037070        2.5376405084       -2.4245215990
 H         -0.3498028753        1.5119055093       -2.7032228353
 H         -0.5233032257        3.1626402756       -3.3174505861
 C         -2.0660993703        2.5502314795       -1.9610009625
 H         -2.4314670999        3.5750260702       -1.8953505613
 H         -2.6612696175        2.0117430748       -2.7031237394
 H          0.1215355585        3.7299275335        1.2488873775
 H         -0.3900397121        5.4061142311        1.0252418763
 H         -2.3115957136        4.2290741274        1.7057346688
 H         -2.5290559750        4.5336774139       -0.0271494835
 O         -2.2908966602        1.8689523396        1.7233782102
 C         -2.4681382334        0.4969251024        1.7865404787
 O         -2.5149548921        0.0425643739        2.9499139533
 O         -2.4640165893       -0.2171207746       -1.7653364098
 C         -2.6650795143       -1.7389601046        0.7310505183
 C         -1.5646343047       -2.3505267284       -0.1039818121
 C         -1.7420766128       -3.3888405694       -1.0065112689
 C         -0.6659383167       -3.8638421919       -1.7384428385
 C          0.5930873520       -3.3116993077       -1.5980118874
 C          0.7786173640       -2.2635232977       -0.7005112828
 C         -0.2905312871       -1.8177981226        0.0542200751
 H         -0.1393623666       -1.0177613721        0.7650118301
 N          2.0271154165       -1.6287509020       -0.5892671281
 S          2.4030831695       -0.6760063238        0.7437291436
 O          2.3301083234       -1.4601750645        1.9590558968
 O          1.6159192156        0.5303831156        0.7112185125
 C          4.1011659155       -0.2913151203        0.3636123965
 C          4.3568386344        0.7235724745       -0.5389620962
 C          5.6715689698        1.0138410910       -0.8664851774
 C          6.7031626116        0.2878307721       -0.2894754141
 C          6.4314632624       -0.7257318129        0.6170520608
 C          5.1182317855       -1.0216641011        0.9481197750
 H          4.8588236549       -1.7939376347        1.6543350964
 H          7.2356085501       -1.2853773208        1.0668023215
 H          7.7256240768        0.5158072227       -0.5459785438
 H          5.8863686514        1.8035515609       -1.5681654933
 H          3.5213070700        1.2643587676       -0.9527269492
 H          2.8043575512       -2.2050721575       -0.8791389209
 H          1.4229151557       -3.6717965106       -2.1863727189
 H         -0.8145642317       -4.6718891334       -2.4387685301
 H         -2.7218927765       -3.8125627401       -1.1538746021
 H         -2.4243019295       -1.9391898355        1.7897245429
 C         -4.0392609574       -2.3398834581        0.4802328660
 C         -5.2801854403       -1.5079803215        0.6053090802
 C         -4.8500387442       -2.0146316231       -0.7367649067
 H         -5.4274580449       -2.8064974431       -1.1913586148
 H         -4.4270768250       -1.3167895523       -1.4410320996
 H         -6.1479300284       -1.9490565821        1.0728087763
 H         -5.1546593570       -0.4561687475        0.8198307419
 H         -4.1084091547       -3.3573685179        0.8534051982
