  62
        -98.94452622
 C         -1.1504759192       -1.8506973275       -0.5382165104
 C         -1.3007336279       -0.6114314054       -1.2115027811
 C         -2.6195738542        0.0332796937       -1.0782613607
 C         -3.5837107623       -0.5607800161       -0.3549183560
 C         -4.9569052284       -0.0014449346       -0.1208547215
 C         -5.0134629702        0.8410887476        1.1600802465
 C         -3.9028383999        1.8864928351        1.2657611039
 H         -4.0755280178        2.4536838752        2.1834593233
 H         -2.9378914467        1.3862408555        1.3814852026
 C         -3.8222421214        2.8531794716        0.0764536004
 H         -3.6841928321        3.8660397710        0.4610256120
 H         -4.7605495168        2.8406045591       -0.4804415973
 C         -2.6555797816        2.5768119328       -0.8738546001
 H         -2.5309916004        3.4492493185       -1.5223006321
 H         -1.7409266729        2.4664219301       -0.2849211023
 C         -2.8118096931        1.3481762315       -1.7800332778
 H         -3.7833417329        1.3815255592       -2.2786875414
 H         -2.0306991914        1.3946049630       -2.5448772899
 H         -5.9851745439        1.3372110689        1.2028844669
 H         -4.9353387932        0.1717143716        2.0199634414
 H         -5.6534770790       -0.8365029105       -0.0252142671
 H         -5.2464113064        0.6035749925       -0.9780549089
 O         -3.4032348525       -1.7486333323        0.2785854709
 C         -2.1858075994       -2.4054950363        0.2172598137
 O         -2.1523002019       -3.4767774649        0.8581624131
 O         -0.4064106110       -0.0618352594       -1.9012803101
 C          0.1428727902       -2.6496354005       -0.5386215279
 C          1.0298976479       -2.2380462869        0.6094084183
 C          1.7250499167       -3.1844117019        1.3539437830
 C          2.5442055818       -2.7917556990        2.3977846043
 C          2.6825351394       -1.4542382915        2.7215497989
 C          1.9793830409       -0.5005721411        1.9919679910
 C          1.1692626026       -0.8976866945        0.9380107148
 H          0.6255380857       -0.1525057821        0.3812068824
 N          2.0723960855        0.8534808794        2.3145069391
 S          1.5052503117        2.0785712472        1.3461107196
 O          2.0488969568        3.2746916021        1.9582345272
 O          0.0675493468        2.0270291934        1.2550554428
 C          2.2616313082        1.8554997671       -0.2523012729
 C          3.5674883641        1.4103420047       -0.3172388986
 C          4.1691114809        1.2777019078       -1.5576872901
 C          3.4606890723        1.5965548918       -2.7061475754
 C          2.1544578068        2.0496582421       -2.6230646778
 C          1.5465944265        2.1822640592       -1.3850916527
 H          0.5261473122        2.5136204914       -1.2856563814
 H          1.5988153415        2.2911602174       -3.5145758757
 H          3.9296062267        1.4890922290       -3.6716381652
 H          5.1846431301        0.9219520616       -1.6254560529
 H          4.0956786681        1.1684910482        0.5908334933
 H          2.7673185243        1.1287823106        2.9890322175
 H          3.3148208179       -1.1478954022        3.5404393390
 H          3.0788778325       -3.5352482102        2.9690238025
 H          1.6049149537       -4.2325057272        1.1225245705
 H         -0.1593731829       -3.6945017308       -0.3606187581
 C          0.8702757125       -2.6091701974       -1.8761927360
 C          2.1061348549       -1.8006215145       -2.1138588589
 C          2.1951316282       -3.2935359893       -2.0423664993
 H          2.3765197248       -3.8464571481       -2.9514876890
 H          2.6492628357       -3.7248174102       -1.1635250644
 H          2.2073634026       -1.3114507550       -3.0699400366
 H          2.4981188819       -1.2211383517       -1.2926720136
 H          0.1776233472       -2.6833537102       -2.7082087098
