  62
        -98.94519828
 C         -1.8117904397       -1.4503986312        0.0971763509
 C         -1.5701480001       -0.0640429212       -0.0625047697
 C         -2.6341868203        0.8264279287        0.4246013600
 C         -3.7395781701        0.2952449586        0.9779064604
 C         -4.9213097603        1.0858690985        1.4584822402
 C         -5.9604768405        1.2656940677        0.3429266102
 C         -5.3706643707        1.7634753873       -0.9766844001
 H         -4.7120512206        0.9935573273       -1.3849894398
 H         -6.1992511409        1.8822442868       -1.6783191900
 C         -4.5979767011        3.0854356876       -0.8682654307
 H         -4.8959032314        3.7335543671       -1.6952246810
 H         -4.8678873711        3.5968927579        0.0563968791
 C         -3.0769813511        2.9381170780       -0.9414802008
 H         -2.8083457510        2.3485144977       -1.8213215306
 H         -2.6471046614        3.9348307380       -1.0708685513
 C         -2.4081545208        2.3053409487        0.2851253294
 H         -1.3269093108        2.4252941389        0.1739369592
 H         -2.7256877608        2.8298362490        1.1885959392
 H         -6.7222438206        1.9658825776        0.6907471700
 H         -6.4430622702        0.3025787075        0.1606818707
 H         -5.3820681001        0.5470372587        2.2881726204
 H         -4.5824818705        2.0573774987        1.8130503597
 O         -3.9290780997       -1.0418859514        1.1219997810
 C         -2.9719162495       -1.9458879313        0.6914402012
 O         -3.2629432792       -3.1423384913        0.8943881118
 H          1.6873156402       -1.7469555309       -1.4256430193
 C          1.6850869603       -1.7746301805       -0.3474965593
 C          0.5354696705       -2.1357479105        0.3347210609
 C          0.5672087806       -2.1579413899        1.7268235810
 C          1.7159401006       -1.8176331893        2.4143624707
 C          2.8587884604       -1.4417178693        1.7292437204
 C          2.8372076003       -1.4170315399        0.3419803904
 N          3.9926235901       -1.0332640898       -0.3668646299
 S          4.6820518297        0.4516775005       -0.0160616706
 O          5.6196896595        0.6900261803       -1.0903658408
 O          5.2365950899        0.4130444712        1.3137062193
 C          3.3526260594        1.6365962001       -0.0928357510
 C          3.0395964091        2.1938134395       -1.3162421812
 C          1.9913186988        3.0948199492       -1.3940854714
 C          1.2727285589        3.4152052995       -0.2534663315
 C          1.5920244292        2.8383848801        0.9652289787
 C          2.6415742894        1.9385254304        1.0502453390
 H          2.9224389897        1.4746377109        1.9816686391
 H          1.0237015692        3.0822165003        1.8489175887
 H          0.4578495387        4.1197304792       -0.3158689017
 H          1.7337771186        3.5402635887       -2.3416536316
 H          3.6301447891        1.9256924593       -2.1778719711
 H          3.8915117700       -1.1262949603       -1.3678443099
 H          3.7595496504       -1.1574746988        2.2487252802
 H          1.7233296407       -1.8404115088        3.4938809107
 H         -0.3303525192       -2.4372512599        2.2625650012
 C         -0.7660091095       -2.4536189912       -0.3588397788
 H         -1.1122318692       -3.4377138411       -0.0133339283
 C         -0.6756185697       -2.4703741118       -1.8700633388
 C         -0.1308561694       -3.6752290719       -2.5753111783
 C         -1.5957048595       -3.3655925324       -2.6418468483
 H         -2.0055097997       -3.0047192029       -3.5733811484
 H         -2.2785446893       -3.9825471523       -2.0759711480
 H          0.4631937404       -3.5305228321       -3.4651874685
 H          0.1838027109       -4.5097458116       -1.9671015280
 H         -0.4673960600       -1.4924722519       -2.2891366992
 O         -0.5265221503        0.4069417188       -0.5829018600
