  62
        -98.94585158
 C         -1.5670903598       -1.4444273394       -0.1824484018
 C         -1.5527981097       -0.0559099891       -0.4604390802
 C         -2.8697135197        0.5664026812       -0.6608367595
 C         -3.9769676897       -0.1945130289       -0.5889013805
 C         -5.3801532797        0.3215542414       -0.7214217800
 C         -5.9620362798        0.7058910698        0.6461895204
 C         -5.0392711398        1.5921633588        1.4830510215
 H         -5.5651731598        1.8219840378        2.4124260517
 H         -4.1461561598        1.0234045884        1.7518829909
 C         -4.6188815497        2.8990769896        0.7961679230
 H         -5.2963295096        3.1166781906       -0.0303963668
 H         -4.7116569497        3.7165173287        1.5143918840
 C         -3.1761275696        2.9132242601        0.2871250131
 H         -2.5013227997        2.6017778891        1.0883999728
 H         -2.9205194195        3.9429296404        0.0239967644
 C         -2.8947111696        2.0419789415       -0.9434004178
 H         -3.6141609995        2.2733301124       -1.7313769576
 H         -1.8918851095        2.2900491519       -1.3028401375
 H         -6.9134224197        1.2164858000        0.4856965409
 H         -6.1592792798       -0.2100820108        1.2081857293
 H         -5.3830778896        1.1844318721       -1.3845083990
 H         -5.9965963797       -0.4647523981       -1.1604151310
 O         -3.9470760698       -1.5286367392       -0.3343974220
 C         -2.7458229598       -2.1843489395       -0.1131258327
 O         -2.8595876299       -3.4023758298        0.1347664259
 H          2.3876806202       -1.3394023899        0.0113632587
 C          1.8677727701       -1.0862087109        0.9189616789
 C          0.5455797101       -1.4556206610        1.1034373484
 C         -0.0696126000       -1.1472153024        2.3146264387
 C          0.6140855300       -0.4631273436        3.3001927696
 C          1.9221419700       -0.0586836234        3.0957508901
 C          2.5497866201       -0.3758489521        1.8979434798
 N          3.8764152901        0.0072341982        1.6638259204
 S          4.4178430603        0.3321450999        0.1187592008
 O          4.6584213703       -0.9010337993       -0.5893863706
 O          5.5829797603        1.1674314896        0.3257946518
 C          3.1444547904        1.2743620209       -0.7004980082
 C          2.6613227004        2.4125532802       -0.0883964770
 C          1.6959321805        3.1628168110       -0.7376374762
 C          1.2354978806        2.7674749425       -1.9827879267
 C          1.7324886405        1.6242871632       -2.5857258880
 C          2.6955055105        0.8680300824       -1.9394159287
 H          3.1027480504       -0.0336924272       -2.3700481998
 H          1.3642723706        1.3129181943       -3.5508078183
 H          0.4789917506        3.3501499331       -2.4850317661
 H          1.2986024405        4.0484213405       -0.2680326452
 H          3.0397263303        2.6989182591        0.8797348834
 H          4.2740322801        0.6328788573        2.3480339811
 H          2.4524768700        0.4927263457        3.8569859108
 H          0.1217360599       -0.2290064346        4.2322584398
 H         -1.0985407900       -1.4451523225        2.4672645583
 C         -0.2511372198       -2.1678536398        0.0384734975
 H         -0.5045385499       -3.1743092202        0.4021099063
 C          0.4886445802       -2.2917307783       -1.2774798926
 C          1.4516054702       -3.4169241381       -1.5035427138
 C          0.1337615103       -3.4024099972       -2.2174005839
 H          0.1217305304       -3.1978572360       -3.2774503536
 H         -0.6301214598       -4.0967583275       -1.8983749047
 H          1.5861799801       -4.1280825490       -0.7023479146
 H          2.3515382003       -3.2223562475       -2.0681755635
 H          0.7214661403       -1.3252404678       -1.7110094514
 O         -0.5003423597        0.6266038309       -0.5353523793
