  62
        -98.94782166
 C         -1.0328901513       -0.9367683494        0.7207892710
 C         -1.7002110406       -0.8405723601       -0.5237779895
 C         -2.3719896004        0.4372603097       -0.7884751805
 C         -2.2627740009        1.4466289202        0.0931052490
 C         -2.8522598308        2.8232404101       -0.0578696721
 C         -4.3234494510        2.9268492504        0.3679332370
 C         -5.3260982705        2.2737692999       -0.5840364232
 H         -6.3199371807        2.6105493800       -0.2824897739
 H         -5.1524314899        2.6372852393       -1.5973766233
 C         -5.3009582405        0.7390401299       -0.5745395723
 H         -4.7838990810        0.3885503603        0.3214833281
 H         -6.3234627506        0.3582419399       -0.5253719027
 C         -4.6415421298        0.1092383292       -1.8015269816
 H         -5.2259999393        0.3440057587       -2.6939417621
 H         -4.6430050899       -0.9761623107       -1.6735959210
 C         -3.1923178197        0.5553054391       -2.0366608211
 H         -2.7436794793       -0.1003441813       -2.7874766105
 H         -3.1666312195        1.5781282989       -2.4133698216
 H         -4.4294828216        2.4902307209        1.3635442272
 H         -4.5655533211        3.9895109604        0.4423810063
 H         -2.2629912412        3.4865912805        0.5794986879
 H         -2.7435100202        3.1534345596       -1.0918510422
 O         -1.5591450915        1.3347037208        1.2516913194
 C         -0.9374811817        0.1434420410        1.5962075104
 O         -0.3350784024        0.1763735016        2.6885121308
 O         -1.7383115501       -1.7720250706       -1.3700472790
 C         -0.2814590715       -2.2063231393        1.0832830821
 C          0.8083064391       -2.4246433698        0.0610566928
 C          1.0509196695       -3.6347614301       -0.5739061764
 C          2.0407143000       -3.7285299407       -1.5379517958
 C          2.7922358902       -2.6248273709       -1.8968868060
 C          2.5670243899       -1.4122838805       -1.2536946768
 C          1.6020337793       -1.3320064800       -0.2652114273
 H          1.4300982490       -0.3901852097        0.2350970321
 N          3.3136571800       -0.2685110007       -1.5709294070
 S          2.6160896700        1.2473416594       -1.4517387482
 O          1.2174983602        1.2395630292       -1.8140914589
 O          3.4713185504        2.0921563989       -2.2610348081
 C          2.8237307090        1.6964740903        0.2573616117
 C          1.7864199186        2.3173075107        0.9229850408
 C          1.9600125979        2.6816296414        2.2482913107
 C          3.1665026175        2.4238367217        2.8796473715
 C          4.2029835779        1.8073872013        2.1948397924
 C          4.0344495887        1.4398542206        0.8698444025
 H          4.8144082890        0.9552900803        0.3066876832
 H          5.1390378176        1.6084694416        2.6914717031
 H          3.2956405670        2.7028670223        3.9134623814
 H          1.1474907676        3.1479130417        2.7818569100
 H          0.8564930689        2.4833008004        0.4004414702
 H          3.9176096805       -0.3536522111       -2.3751749966
 H          3.5424992906       -2.6948639813       -2.6696072555
 H          2.2162681503       -4.6724669409       -2.0315283052
 H          0.4569929393       -4.4994842400       -0.3273787363
 H          0.1941380980       -2.0122583187        2.0559162722
 C         -1.2308490115       -3.3764102992        1.2244148922
 C         -0.8903518421       -4.5165812687        2.1351755630
 C         -1.9739454823       -3.5532345285        2.5133078518
 H         -3.0001078322       -3.8867302485        2.4752524814
 H         -1.7755589327       -2.8408743881        3.3010685516
 H         -1.1752332419       -5.5151990288        1.8402904933
 H          0.0433962676       -4.4638519984        2.6741260635
 H         -1.7635970810       -3.5929392397        0.3057775420
