  62
        -98.94546509
 C         -2.3798418397       -0.9942235110        0.1245336803
 C         -1.9025371901       -0.0730618111       -0.8395509800
 C         -2.4807798105        1.2751255788       -0.7669142202
 C         -3.4196508405        1.5549201787        0.1553265697
 C         -4.1174551910        2.8760866785        0.3353936294
 C         -3.3379492513        3.8823058089        1.1933634892
 C         -2.1034384415        4.4888051092        0.5248430990
 H         -2.3822338817        4.8967605289       -0.4470386611
 H         -1.7792396517        5.3242492094        1.1485208388
 C         -0.9304881212        3.5120285895        0.3580451291
 H         -1.0814688909        2.6501283596        1.0128129294
 H         -0.0048002613        3.9964149699        0.6779081790
 C         -0.7159982211        3.0174058693       -1.0725904807
 H         -0.4359866914        3.8585336292       -1.7099807610
 H          0.1103055792        2.3021285295       -1.0685401306
 C         -1.9353488809        2.3214811587       -1.6907058905
 H         -2.7042805011        3.0524629684       -1.9388163607
 H         -1.6147455508        1.8206610086       -2.6070588704
 H         -3.0447684911        3.3935161193        2.1256888793
 H         -4.0232903615        4.6942679288        1.4470380190
 H         -4.3293875612        3.3148682282       -0.6398353307
 H         -5.0652848009        2.6615429483        0.8337865595
 O         -3.8674594602        0.6326496287        1.0493600500
 C         -3.3445802298       -0.6513606711        1.0708622703
 O         -3.8124108095       -1.3819523210        1.9688276905
 H         -0.2548311298       -0.6891431700        1.4554293701
 C          0.3219116705       -1.4689292999        0.9728459503
 C         -0.3382063092       -2.4409479403        0.2329626805
 C          0.4199765911       -3.4351596102       -0.3742660893
 C          1.7965652011       -3.4531357197       -0.2352886393
 C          2.4491140208       -2.4811931993        0.4999876704
 C          1.7041065205       -1.4726819894        1.0980011802
 N          2.3435442402       -0.4761990990        1.8529136000
 S          3.7754592699        0.2221719013        1.3483900697
 O          4.8316519803       -0.7566004483        1.4188643399
 O          3.9272440996        1.3865530916        2.1908751794
 C          3.5324312097        0.7288981908       -0.3433938104
 C          2.9725088293        1.9687439606       -0.5784451907
 C          2.7685191891        2.3768274502       -1.8864884708
 C          3.1097885293        1.5340539501       -2.9328038706
 C          3.6695218797        0.2915971903       -2.6806024903
 C          3.8897533999       -0.1160384793       -1.3747829602
 H          4.3418786503       -1.0658277091       -1.1441705300
 H          3.9372007699       -0.3607804798       -3.4960616301
 H          2.9412647992        1.8499355498       -3.9501618306
 H          2.3424627588        3.3470863700       -2.0849183010
 H          2.7240336191        2.5964999407        0.2625234292
 H          1.7180294400        0.2233979608        2.2225536998
 H          3.5185960508       -2.4931380489        0.6310671904
 H          2.3705593313       -4.2374595296       -0.7047929691
 H         -0.0694283387       -4.2003460505       -0.9540135390
 C         -1.8457520192       -2.4128625208        0.1424086506
 H         -2.2479862691       -2.8795948807        1.0544883907
 C         -2.3760909491       -3.1690298513       -1.0612973492
 C         -2.7122281286       -4.6259344314       -0.9615683288
 C         -3.8082749989       -3.6091979118       -1.0601497290
 H         -4.3713595790       -3.5403699922       -1.9787956590
 H         -4.3897245389       -3.3934534717       -0.1751477990
 H         -2.5256326684       -5.2584753515       -1.8165018887
 H         -2.5607250484       -5.1122919811       -0.0095639287
 H         -1.9672181492       -2.7989104014       -1.9946297593
 O         -1.0389271200       -0.3558981110       -1.7089323099
