  62
        -98.93993857
 C         -2.0817839868       -0.7181228870       -0.2197579858
 C         -3.2324768503       -0.7793483437        0.6082019937
 C         -3.9573556546        0.4800830492        0.8140684309
 C         -3.4852165957        1.6061530185        0.2495286293
 C         -4.1431162698        2.9522142800        0.3404888140
 C         -5.1181681996        3.1749900785       -0.8242174437
 C         -6.0876899604        2.0145241320       -1.0485726941
 H         -6.7445582681        2.2951157620       -1.8747242428
 H         -5.5226866449        1.1369497555       -1.3710725358
 C         -6.9352366536        1.6491673153        0.1780687928
 H         -6.9269946547        2.4731055211        0.8923873308
 H         -7.9696426976        1.5066252396       -0.1413794548
 C         -6.5058352227        0.3621688646        0.8846977253
 H         -6.4208571931       -0.4458503591        0.1539139323
 H         -7.2921022036        0.0836551677        1.5912557263
 C         -5.1913688033        0.4399505394        1.6714497449
 H         -5.2172053672        1.2964219990        2.3481347132
 H         -5.1082185880       -0.4706501493        2.2716572094
 H         -5.6807762767        4.0905479298       -0.6326660230
 H         -4.5370079769        3.3176221475       -1.7382692688
 H         -4.6702960876        3.0286327885        1.2895641010
 H         -3.3650483406        3.7166744409        0.3039812992
 O         -2.3664581476        1.6342819866       -0.5178795694
 C         -1.6380633227        0.4800960604       -0.7810917168
 O         -0.6554614749        0.6704917899       -1.5227769103
 H          1.2127801774       -0.9794799065       -0.8367196878
 C          1.0974568275       -1.4484272534        0.1268949217
 C         -0.1149878818       -2.0166365636        0.4920908488
 C         -0.2404495504       -2.5735584390        1.7620018053
 C          0.8226868710       -2.5645782665        2.6448523745
 C          2.0296159917       -1.9971855099        2.2787066731
 C          2.1655473196       -1.4357404894        1.0136936934
 N          3.3980326560       -0.8875136896        0.6149733726
 S          3.3987287627        0.5285505124       -0.3094391139
 O          2.5319889229        1.5145223865        0.2962785249
 O          3.1576372478        0.1868602602       -1.6872838276
 C          5.1061509359        1.0124670813       -0.1151659626
 C          6.0665992895        0.3565491101       -0.8621573729
 C          7.3977980151        0.7038851540       -0.6964558446
 C          7.7455940020        1.6960878321        0.2083626392
 C          6.7710951783        2.3473237542        0.9492878839
 C          5.4377677833        2.0030110396        0.7894045977
 H          4.6446370277        2.4863652214        1.3372240308
 H          7.0433171987        3.1207780402        1.6492889362
 H          8.7822383730        1.9655716706        0.3347263313
 H          8.1577283632        0.2014748074       -1.2728730949
 H          5.7469980759       -0.4002215684       -1.5592695515
 H          4.0437831383       -0.8003814109        1.3892193384
 H          2.8623477493       -1.9880175297        2.9657450623
 H          0.7105413152       -2.9987882622        3.6268096069
 H         -1.1908364009       -2.9979752047        2.0527422932
 C         -1.3117461319       -2.0129088402       -0.4291547830
 H         -1.9924870698       -2.8056024158       -0.0881305564
 C         -0.9516878540       -2.2822397495       -1.8742847121
 C         -0.5685363094       -3.6746771555       -2.2746859629
 C         -1.8798099311       -3.1011980259       -2.7185782650
 H         -2.0022196015       -2.8314507736       -3.7568494320
 H         -2.7818605788       -3.4725054276       -2.2542796164
 H          0.2139517476       -3.8008362052       -3.0070665264
 H         -0.5817818012       -4.4343804825       -1.5077145975
 H         -0.4404400545       -1.4597457065       -2.3580087017
 O         -3.6377192755       -1.8439781147        1.1474384513
