  62
        -98.93098993
 C         -1.6877168263       -0.0857725677        0.3227683610
 C         -2.8274864033       -0.9237518742        0.2525042888
 C         -4.0580425954       -0.2945944344       -0.2648919968
 C         -4.0298990068        0.9879003372       -0.6665383239
 C         -5.2109474939        1.7802437662       -1.1508283812
 C         -6.0769356532        2.2214483097        0.0463108448
 C         -7.4722957436        1.5974858917        0.0788247922
 H         -7.9001541706        1.8038011092        1.0622367552
 H         -8.1004290054        2.0937149014       -0.6640209156
 C         -7.5359510404        0.0902080457       -0.1863187860
 H         -8.5269148669       -0.2458099696        0.1265535585
 H         -7.4690075478       -0.0969825350       -1.2590602235
 C         -6.4788033969       -0.7624295145        0.5273411509
 H         -6.9559582888       -1.6872780791        0.8580701578
 H         -6.1157866338       -0.2557736190        1.4218437960
 C         -5.2803853285       -1.1666823344       -0.3515559562
 H         -4.9379508704       -2.1581036428       -0.0399248065
 H         -5.6015838514       -1.2435583055       -1.3940775855
 H         -6.1883168933        3.3067275932        0.0347578306
 H         -5.5432142859        1.9706607182        0.9654343322
 H         -5.7952176277        1.1821921146       -1.8465553814
 H         -4.8219400397        2.6507166544       -1.6793979449
 O         -2.9090477575        1.7534820100       -0.6060683244
 C         -1.7228784304        1.2423398545       -0.1110067503
 O         -0.7792125608        2.0580501037       -0.1011584575
 O         -2.8404577485       -2.1341194584        0.5926801572
 C         -0.3384065381       -0.5498640085        0.8445120185
 C          0.5017843639       -1.1478710325       -0.2539595583
 C         -0.0078385682       -2.1029586625       -1.1276087065
 C          0.7969123978       -2.6478860401       -2.1114715989
 C          2.1225601938       -2.2684187639       -2.2307352387
 C          2.6402684461       -1.3126577938       -1.3646185407
 C          1.8222513637       -0.7493202727       -0.3953829845
 H          2.2218484931        0.0074832162        0.2609830886
 N          3.9733479333       -0.8958225376       -1.4632314751
 S          4.8457395394       -0.5161158144       -0.0865688461
 O          6.2286677431       -0.6656097249       -0.4847147606
 O          4.4184429832       -1.3051591791        1.0444489846
 C          4.5044323632        1.2084204033        0.1894508752
 C          4.7572034760        2.0955009091       -0.8379723616
 C          4.5005072739        3.4419174262       -0.6374734364
 C          3.9993924052        3.8763550456        0.5803543730
 C          3.7560156024        2.9739714494        1.6038836152
 C          4.0115027063        1.6258142393        1.4095064577
 H          3.8308113588        0.8907574812        2.1787041193
 H          3.3639383737        3.3130012951        2.5494218187
 H          3.7950698341        4.9242857377        0.7334209965
 H          4.6881857850        4.1481904814       -1.4301659271
 H          5.1490353543        1.7204390812       -1.7687032648
 H          4.5288250296       -1.3854925776       -2.1488427690
 H          2.7519603056       -2.7061961508       -2.9906319871
 H          0.3913535945       -3.3877428287       -2.7852278481
 H         -1.0342381899       -2.4195388998       -1.0211346982
 H          0.1703707534        0.3693504491        1.1772406698
 C         -0.4380908309       -1.4649414774        2.0577387041
 C         -0.1414349387       -2.9304871481        2.0209734219
 C          0.8102932337       -1.9949165027        2.7006083727
 H          0.8690400716       -2.0097401035        3.7787794505
 H          1.7546528300       -1.7984965536        2.2121396087
 H         -0.7574991306       -3.5799480531        2.6239905517
 H          0.1586128644       -3.3682599137        1.0821290760
 H         -1.2336807099       -1.1564213071        2.7287233268
