  62
        -98.94489823
 C         -2.0821749846       -1.3965361654        0.1183096836
 C         -2.0413108034       -0.5462192745       -1.0130366392
 C         -2.8844939972        0.6573044904       -0.9435976670
 C         -3.6339271821        0.8844017725        0.1496416092
 C         -4.4847704454        2.1000532044        0.3730570388
 C         -3.6977234477        3.2056912324        1.0908231085
 C         -2.3317073366        3.4973915194        0.4692598462
 H         -1.8874500209        4.3164435514        1.0384728135
 H         -1.6873015209        2.6249587149        0.5994085730
 C         -2.3787906014        3.8768408167       -1.0176437194
 H         -3.3902947227        4.1793167955       -1.2911529646
 H         -1.7312561834        4.7410448957       -1.1819821996
 C         -1.9076892085        2.7756595205       -1.9697958163
 H         -0.9374132928        2.3934516458       -1.6427650338
 H         -1.7706974003        3.2178439813       -2.9604109513
 C         -2.8596391667        1.5835669998       -2.1271643942
 H         -3.8649491271        1.9408009270       -2.3589387479
 H         -2.5061084370        0.9842253413       -2.9712459339
 H         -4.3027597089        4.1142035564        1.0899280919
 H         -3.5428604189        2.9012980906        2.1283704374
 H         -4.8505410518        2.4629359354       -0.5855665091
 H         -5.3374951416        1.8137002556        0.9909553923
 O         -3.6620803272        0.0386040836        1.2099256711
 C         -2.8905714865       -1.1087406715        1.2240702875
 O         -3.0115165102       -1.7903878595        2.2612365184
 H          0.6051312737       -1.5666861232       -1.3960150994
 C          1.0054983731       -1.8002802107       -0.4211944135
 C          0.1762820827       -2.3690867440        0.5350394161
 C          0.6971969174       -2.6265701719        1.7981905016
 C          2.0191567678       -2.3372685011        2.0878255420
 C          2.8463907861       -1.7815964467        1.1281235449
 C          2.3294888267       -1.5012709891       -0.1304054056
 N          3.1493698838       -0.9287762079       -1.1189176601
 S          4.1255495363        0.3697791445       -0.7276411035
 O          4.4826373269        0.9676543345       -1.9935993465
 O          5.2209448283       -0.0867315657        0.0910111410
 C          3.0949271686        1.4842669836        0.2081101441
 C          3.1768754830        1.5053045709        1.5856300182
 C          2.3388445845        2.3520810776        2.2936755479
 C          1.4436567332        3.1639847850        1.6153057918
 C          1.3805721824        3.1392583188        0.2303513539
 C          2.2069221679        2.2857583264       -0.4818694353
 H          2.1890031866        2.2417981715       -1.5593423104
 H          0.6896845874        3.7795980716       -0.2939052676
 H          0.7929879812        3.8235925440        2.1675573580
 H          2.3882510412        2.3768004145        3.3704073259
 H          3.8973639065        0.8724012448        2.0763675960
 H          2.6649573780       -0.7611696555       -1.9889660576
 H          3.8820578954       -1.5645928240        1.3328364330
 H          2.4118954396       -2.5508019576        3.0703211702
 H          0.0532572702       -3.0486552654        2.5563317288
 C         -1.2689689156       -2.6788817403        0.2238265401
 H         -1.6857034016       -3.2196823281        1.0836387162
 C         -1.4023308720       -3.5612204474       -1.0023254849
 C         -1.0622958901       -5.0155430580       -0.8886831669
 C         -2.4903973652       -4.5893623471       -1.0476116903
 H         -2.9846395272       -4.7754599989       -1.9894136769
 H         -3.1441052492       -4.6640609362       -0.1905257096
 H         -0.5731156871       -5.4973116975       -1.7213638165
 H         -0.7474421811       -5.3810567927        0.0771468758
 H         -1.1605850834       -3.0583574049       -1.9290389066
 O         -1.3464356063       -0.7569464641       -2.0436493655
