  62
        -98.93486213
 C         -1.6905982274       -0.9933847609        0.3111616977
 C         -2.1473211294        0.3434059411        0.2449278618
 C         -3.6087293538        0.5539066038        0.3551580750
 C         -4.4101252234       -0.5087225713        0.5502165482
 C         -5.9121172829       -0.5450101713        0.6491461489
 C         -6.6000039142       -0.3929848233       -0.7168737091
 C         -6.0181274169        0.6985135023       -1.6111454352
 H         -4.9591246931        0.4964268554       -1.7820464591
 H         -6.5196631643        0.6361658915       -2.5805746375
 C         -6.1846333341        2.1240094187       -1.0901411961
 H         -5.8132040511        2.7978666522       -1.8665306458
 H         -7.2476502703        2.3328689326       -0.9509290700
 C         -5.4495544753        2.4511760769        0.2116543834
 H         -5.4493573359        3.5397837230        0.3199155050
 H         -5.9807962400        2.0566632978        1.0735833204
 C         -3.9893543416        2.0109295044        0.2462770176
 H         -3.4945808983        2.5061298750        1.0907760961
 H         -3.4787921639        2.3926020944       -0.6456462325
 H         -6.5082717757       -1.3429314771       -1.2491903200
 H         -7.6612559453       -0.2019146823       -0.5491943575
 H         -6.2597701464        0.2131664688        1.3444189509
 H         -6.1742728301       -1.5211596648        1.0632828050
 O         -3.9183668153       -1.7768056224        0.6542811462
 C         -2.5706722843       -2.0527091501        0.5456543385
 O         -2.2795657985       -3.2574665873        0.6841745381
 O         -1.3903026274        1.3375854607        0.0952299284
 C         -0.2195040633       -1.3537041258        0.1935793607
 C          0.6250103959       -0.4082290914        1.0103221941
 C          0.4731555188       -0.4034593123        2.3949054724
 C          1.2222457908        0.4458770345        3.1850254879
 C          2.1579586973        1.2914652470        2.6143945938
 C          2.3167891579        1.2941226687        1.2344851130
 C          1.5525861144        0.4487352218        0.4410720007
 H          1.6616632595        0.5077796616       -0.6281258510
 N          3.2566583727        2.1357655318        0.6246350687
 S          4.0741494684        1.6322988083       -0.7380850159
 O          5.3078949597        2.3900375390       -0.7170494944
 O          3.2621055784        1.7973202923       -1.9169264535
 C          4.4203700574       -0.0994511232       -0.4747624662
 C          5.0693476429       -0.4748947735        0.6848688892
 C          5.3331229605       -1.8174518921        0.9012316667
 C          4.9488845940       -2.7581079043       -0.0421361171
 C          4.3072684299       -2.3649701036       -1.2060817766
 C          4.0383733732       -1.0231923162       -1.4256988802
 H          3.5359056766       -0.6743952460       -2.3140021423
 H          4.0114447350       -3.0975904233       -1.9403406687
 H          5.1513061609       -3.8035504179        0.1291682873
 H          5.8347208816       -2.1266146607        1.8039804666
 H          5.3627922367        0.2794191257        1.3963912851
 H          3.8426651676        2.6617849385        1.2549740293
 H          2.7470848483        1.9546322512        3.2293127370
 H          1.0847409081        0.4456358335        4.2558560601
 H         -0.2547687939       -1.0679594333        2.8409459731
 H         -0.1387640184       -2.3537483315        0.6511255927
 C          0.2730897703       -1.4928990038       -1.2389972640
 C         -0.6416581980       -1.9420981471       -2.3377186924
 C         -0.1259542190       -0.5357380696       -2.3198142671
 H          0.6162375954       -0.2432779688       -3.0491051111
 H         -0.8039031064        0.2607234462       -2.0559424585
 H         -0.2556476158       -2.6242907819       -3.0800039870
 H         -1.6796659045       -2.1098498654       -2.0890113350
 H          1.2905154456       -1.8707335966       -1.2759210371
