  62
        -98.93884278
 C         -1.8983612281       -0.5312382915       -0.5641923915
 C         -2.9292015712       -1.3358792686       -0.0272909772
 C         -4.3003696462       -0.8115909212       -0.1476581548
 C         -4.4941313042        0.3717885188       -0.7556296121
 C         -5.7942680786        1.1069917313       -0.9297353294
 C         -6.0084953994        2.1086886411        0.2178329413
 C         -6.6934442417        1.5328618860        1.4567545331
 H         -6.6636371182        2.3027978323        2.2312132624
 H         -7.7435603186        1.3390625754        1.2281891406
 C         -6.0698364894        0.2506185902        2.0141457439
 H         -6.3821191902        0.1523471559        3.0556766513
 H         -4.9819492833        0.3391892181        2.0098828265
 C         -6.4950649338       -1.0104855892        1.2474028878
 H         -6.8579766208       -1.7584753862        1.9553616860
 H         -7.3360608332       -0.7657936458        0.5988578338
 C         -5.3861855615       -1.6823947741        0.4236863830
 H         -4.8570451793       -2.4078381759        1.0495974852
 H         -5.8432084826       -2.2506089026       -0.3933063311
 H         -5.0320649876        2.5167473516        0.4918571656
 H         -6.6166433446        2.9377656876       -0.1496941529
 H         -6.6244225673        0.4110198553       -1.0051953823
 H         -5.7142073117        1.6630139146       -1.8661388498
 O         -3.4718378477        1.1120828561       -1.2669998204
 C         -2.1553624056        0.6908305897       -1.1845006304
 O         -1.3310597240        1.4752330676       -1.6908712227
 O         -2.7125986853       -2.4411864454        0.5394960075
 C         -0.4627991156       -1.0166406246       -0.4662441327
 C          0.3675185212       -0.0034065799        0.2808777747
 C         -0.0504332751        0.3898283574        1.5509197528
 C          0.6530929223        1.3381794947        2.2656513794
 C          1.7987374716        1.9066705203        1.7355289054
 C          2.2297623919        1.5168688988        0.4742534762
 C          1.5190012901        0.5615987479       -0.2423446213
 H          1.8687236300        0.2946694118       -1.2248418340
 N          3.3814039915        2.0879598163       -0.0910623440
 S          4.5214807669        1.1222314804       -0.8397076309
 O          5.7021832913        1.9536242482       -0.9205029853
 O          4.0139580375        0.6137698796       -2.0876428537
 C          4.7925637350       -0.2092599417        0.3149283968
 C          5.5973143290        0.0323729344        1.4115982263
 C          5.7644152131       -0.9683418230        2.3545092110
 C          5.1199323627       -2.1852733914        2.1899285277
 C          4.3164191204       -2.4119385784        1.0834633103
 C          4.1481696789       -1.4157873597        0.1343774706
 H          3.5351379671       -1.5560150123       -0.7402973418
 H          3.8178246058       -3.3595977691        0.9557640867
 H          5.2460177538       -2.9630789608        2.9264674576
 H          6.3924399389       -0.7970433230        3.2138839730
 H          6.0887502658        0.9880678956        1.4963440377
 H          3.8280951174        2.7826787973        0.4894571974
 H          2.3462729106        2.6551994605        2.2878238327
 H          0.3106347931        1.6379821498        3.2445775583
 H         -0.9467500037       -0.0532312040        1.9632697052
 H         -0.5086358338       -1.9369473685        0.1346722917
 C          0.0718024390       -1.3602661230       -1.8397349837
 C          1.1154105665       -2.4237085151       -1.9980489972
 C         -0.2901706942       -2.6796994773       -2.4505898483
 H         -0.4958629073       -2.7178129498       -3.5098275076
 H         -0.9032667565       -3.3465575165       -1.8620325338
 H          1.8820897155       -2.2854683150       -2.7464160343
 H          1.4499886064       -2.9283339943       -1.1040983165
 H          0.1111102264       -0.5027721058       -2.5027832211
