  62
        -98.93902941
 C         -1.9392132102       -0.4656324765       -0.1558122108
 C         -2.9773383014       -0.7399131369        0.7696256270
 C         -4.1901203998        0.0907123161        0.6826954081
 C         -4.2558567005        1.0635652947       -0.2450853252
 C         -5.3283206316        2.0913474764       -0.5403707357
 C         -6.7287292242        1.9510760696        0.0504398978
 C         -7.5343932119        0.7691860955       -0.4881982790
 H         -8.4682457232        0.7074367200        0.0748093135
 H         -7.7884124091        0.9695039835       -1.5322170356
 C         -6.8325650828       -0.5855737178       -0.4371776720
 H         -7.5133917252       -1.3302619091       -0.8584278412
 H         -5.9463938237       -0.5637207270       -1.0747395779
 C         -6.4295687799       -1.0612317847        0.9571566106
 H         -7.3012233795       -1.0533249618        1.6144119247
 H         -6.0890727445       -2.0961077941        0.8657653355
 C         -5.3009034662       -0.2610747759        1.6300099932
 H         -4.8548331125       -0.8921770669        2.4041099696
 H         -5.6853462012        0.6308581690        2.1189834126
 H         -6.6779895705        1.9162285680        1.1347060778
 H         -7.2692596507        2.8649333163       -0.2110910553
 H         -4.9121409572        3.0530066137       -0.2197676902
 H         -5.4034088295        2.1384459943       -1.6315144643
 O         -3.2241827833        1.3021114231       -1.1052235784
 C         -2.0549223584        0.5586363830       -1.0932755675
 O         -1.2325758441        0.9120795354       -1.9613255584
 O         -2.8939475027       -1.6460759884        1.6405816563
 C         -0.6815537738       -1.3147934747       -0.0677041476
 C          0.4244058394       -0.5102357650        0.5704960002
 C          0.6727096012       -0.6236835865        1.9343631854
 C          1.6734908552        0.1190943207        2.5351469250
 C          2.4463023736        0.9901737381        1.7883623220
 C          2.1994344784        1.1160942630        0.4273957107
 C          1.2033779630        0.3619040887       -0.1762612719
 H          1.0054671311        0.4835318057       -1.2298566043
 N          2.9867344204        1.9972530366       -0.3386277636
 S          4.6449202336        1.7855114002       -0.2311513232
 O          5.1345303906        2.4261010508        0.9641859131
 O          5.1829270326        2.2805460509       -1.4786575670
 C          4.8600723435        0.0189191643       -0.1036222774
 C          5.3003231457       -0.5396992187        1.0786473046
 C          5.3944177644       -1.9190737088        1.1732539215
 C          5.0439504958       -2.7110120389        0.0912052718
 C          4.6065082728       -2.1340453106       -1.0912145823
 C          4.5095015397       -0.7561738189       -1.1914122578
 H          4.1765214227       -0.2744882538       -2.0969102007
 H          4.3367426202       -2.7528830526       -1.9318026288
 H          5.1120400854       -3.7847113738        0.1675152259
 H          5.7357434261       -2.3706515073        2.0907242816
 H          5.5614761195        0.1129261657        1.8953940610
 H          2.6910891472        2.0582664475       -1.3022481455
 H          3.2301008079        1.5796637096        2.2360877934
 H          1.8541727185        0.0194228174        3.5944957658
 H          0.0624047476       -1.2936725471        2.5227735145
 H         -0.9375833623       -2.1330158896        0.6181759722
 C         -0.2726481625       -1.9087793445       -1.4010038997
 C          0.7747481595       -2.9804532667       -1.4262163925
 C         -0.6537505806       -3.3209316252       -1.7243499446
 H         -0.9276079623       -3.5599161738       -2.7411872906
 H         -1.2140278108       -3.8704787546       -0.9822276944
 H          1.4833595811       -2.9860259940       -2.2397224882
 H          1.1869939306       -3.2955404250       -0.4798191076
 H         -0.2851610489       -1.1961448278       -2.2155989086
