  62
        -98.94832133
 C         -0.8032245189       -1.3005242458        0.0696728872
 C         -1.6466679105       -0.9048885452        1.1334768489
 C         -2.4558826121        0.2974267856        0.8967113355
 C         -2.3329995466        0.9530624602       -0.2722399186
 C         -3.1738558038        2.1247276901       -0.6871419031
 C         -4.4408197549        1.6641179183       -1.4232960262
 C         -5.2181589204        0.5649035667       -0.6997373895
 H         -4.6121324232       -0.3435376308       -0.6736879508
 H         -6.1036087930        0.3436399288       -1.2995539282
 C         -5.6467426011        0.9263981040        0.7290872263
 H         -6.6877974145        0.6284528934        0.8704000597
 H         -5.5969572581        2.0067126485        0.8698238658
 C         -4.8333148337        0.2366140688        1.8255105550
 H         -4.8076404835       -0.8404790231        1.6415059666
 H         -5.3435630212        0.3929909410        2.7798132477
 C         -3.3902169241        0.7298394697        1.9914459799
 H         -2.9931853317        0.2939079575        2.9133910035
 H         -3.3817398075        1.8167008236        2.0979924613
 H         -4.1498709547        1.2854478137       -2.4055553021
 H         -5.0874747636        2.5310403523       -1.5701514059
 H         -3.4419295123        2.7049863428        0.1936221979
 H         -2.5856363340        2.7473138225       -1.3612707863
 O         -1.4642082117        0.5789276865       -1.2449175407
 C         -0.6798461101       -0.5559272607       -1.1033679493
 O          0.0670610087       -0.7899121121       -2.0708662852
 H          1.3743199399       -0.4564786676        1.1332398614
 C          2.0159809492       -1.1207191487        0.5723151788
 C          1.4881033153       -2.2782002548        0.0145660282
 C          2.3388730531       -3.1281018894       -0.6815093239
 C          3.6785772119       -2.8132241346       -0.8273159185
 C          4.1950544357       -1.6474526310       -0.2933949277
 C          3.3527539988       -0.7948676342        0.4130703787
 N          3.8481911327        0.3930137201        0.9694092586
 S          2.8881564412        1.7176627963        1.2526933738
 O          3.8345543742        2.7912312688        1.4796150875
 O          1.9764147829        1.4602998904        2.3412832968
 C          1.9652190552        2.0942609629       -0.2291239003
 C          2.3375195429        1.6191055005       -1.4692278739
 C          1.6179680611        2.0226116556       -2.5832645361
 C          0.5639512600        2.9098453892       -2.4455965591
 C          0.2115505404        3.3908184995       -1.1944364108
 C          0.9103997208        2.9722383400       -0.0753129278
 H          0.6565790287        3.3046832630        0.9191535640
 H         -0.6025400422        4.0895359987       -1.0837948907
 H          0.0105578184        3.2227224023       -3.3170430232
 H          1.8816914698        1.6349662633       -3.5536886084
 H          3.1585517130        0.9281470181       -1.5681493265
 H          4.7862239089        0.6490226651        0.7004862196
 H          5.2368747825       -1.3948910435       -0.4178725810
 H          4.3280369489       -3.4803547880       -1.3731693196
 H          1.9522204447       -4.0358204743       -1.1144208822
 C          0.0212034059       -2.5653007201        0.2126621875
 H         -0.1249679936       -2.8956583702        1.2526731986
 C         -0.5113402551       -3.6368333530       -0.7181592707
 C         -0.4378266686       -5.0843356790       -0.3363759669
 C         -1.7571970164       -4.3743403812       -0.3319277123
 H         -2.4768532026       -4.6121020488       -1.1009578808
 H         -2.2027117508       -4.1255627372        0.6204757073
 H          0.0068828742       -5.3289927180        0.6164422458
 H         -0.2540048226       -5.8136577034       -1.1109360399
 H         -0.3895047687       -3.3739679723       -1.7631751097
 O         -1.7286281741       -1.5353323474        2.2236452040
