  62
        -98.94366477
 C         -1.8386743062       -0.6903977221       -0.2327516140
 C         -3.1188612346       -1.2882245290       -0.1596674155
 C         -4.1403798745       -0.5307430676        0.5757707548
 C         -3.8068657376        0.6425436310        1.1443463835
 C         -4.7606511192        1.5432431972        1.8731330980
 C         -5.3953894596        2.5656879657        0.9199532377
 C         -5.9666720554        1.9485983145       -0.3567154778
 H         -6.4158088567        2.7579715555       -0.9363690033
 H         -5.1475733831        1.5416752004       -0.9540261294
 C         -7.0120638441        0.8501532676       -0.1180217613
 H         -7.3960619127        0.9186367708        0.9004863616
 H         -7.8544064681        1.0152397929       -0.7931822287
 C         -6.5080865537       -0.5713598614       -0.3745456170
 H         -6.0393441037       -0.6214056427       -1.3606586230
 H         -7.3721328599       -1.2411199120       -0.3891528514
 C         -5.5182265718       -1.1249900375        0.6582515251
 H         -5.9302532960       -1.0073184837        1.6627261206
 H         -5.3959819444       -2.1941991282        0.4608257303
 H         -6.1859832658        3.0932742570        1.4566665084
 H         -4.6326056361        3.2943740791        0.6361637423
 H         -5.5346123430        0.9405932378        2.3444745366
 H         -4.2067974615        2.0766352751        2.6476469650
 O         -2.5588944771        1.1710283706        1.0772381255
 C         -1.5450712711        0.5274390859        0.3810209855
 O         -0.4563457172        1.1285265097        0.3875027921
 H          1.9425453837       -1.0857192124       -1.5568574716
 C          1.7582982141       -1.4421928089       -0.5551191313
 C          0.4577803226       -1.6507497410       -0.1213501583
 C          0.2604957407       -2.1226295180        1.1738031766
 C          1.3305781964       -2.3544040778        2.0162874848
 C          2.6268226275       -2.1340705434        1.5834812319
 C          2.8370576740       -1.6769408657        0.2904370860
 N          4.1591224384       -1.4664598589       -0.1560592494
 S          5.0566948731       -0.2465230156        0.5587213457
 O          6.3747123811       -0.3380387901       -0.0269194863
 O          4.9798365466       -0.3857642882        1.9898155983
 C          4.2792520065        1.2712664828        0.0331045065
 C          4.9334556245        2.0873000153       -0.8694775329
 C          4.2998406904        3.2354553107       -1.3160739729
 C          3.0212574591        3.5364491641       -0.8700237012
 C          2.3752625771        2.7041428886        0.0311454091
 C          3.0108344383        1.5627765060        0.4937235407
 H          2.5211403721        0.9040147339        1.1925167188
 H          1.3695085650        2.9066930099        0.3626979568
 H          2.5222856905        4.4238038784       -1.2273230098
 H          4.7993188489        3.8871091916       -2.0150551620
 H          5.9215641848        1.8074432705       -1.1975682096
 H          4.2337195526       -1.3823481172       -1.1607011487
 H          3.4718545428       -2.2915983639        2.2331067902
 H          1.1562471299       -2.7128332401        3.0198172674
 H         -0.7502507386       -2.2978469799        1.5169418863
 C         -0.7399006687       -1.3982594789       -1.0031471791
 H         -1.1649198556       -2.3723997755       -1.2889122717
 C         -0.4103744851       -0.6227410825       -2.2625610904
 C          0.0543662052       -1.3356305310       -3.4966376590
 C         -1.3225725938       -0.7468664374       -3.4447299929
 H         -1.5314401974        0.1350592892       -4.0314568340
 H         -2.1639697677       -1.4180759222       -3.3516825095
 H          0.7903631836       -0.8557159189       -4.1243993308
 H          0.1462509714       -2.4103551119       -3.4502472314
 H          0.0017824946        0.3577261730       -2.0493325965
 O         -3.3922918094       -2.4032178344       -0.6814692407
