  62
        -98.94519565
 C         -2.2643476323       -0.7409185676       -0.0189587426
 C         -3.2613572399       -0.6587257271        0.9860845525
 C         -4.1252809026        0.5250394754        0.9405281443
 C         -3.9095260248        1.4715950930        0.0091335810
 C         -4.6846147508        2.7515572185       -0.1482509453
 C         -5.9819945358        2.5995210559       -0.9544015226
 C         -7.1159191376        1.8716564650       -0.2311592205
 H         -7.2763618500        2.3313723216        0.7444813142
 H         -8.0226512926        2.0289002682       -0.8186135767
 C         -6.8935705071        0.3622655380       -0.0615332409
 H         -6.1105665437        0.0302584578       -0.7471569310
 H         -7.8057670938       -0.1729155875       -0.3345353819
 C         -6.5233255131       -0.0685229115        1.3576805814
 H         -7.3557598970        0.1405571121        2.0330529834
 H         -6.3545815004       -1.1482669340        1.3546516101
 C         -5.2626170452        0.6065108895        1.9136046976
 H         -5.4723490250        1.6453467551        2.1672579179
 H         -4.9614196049        0.0778339333        2.8211634119
 H         -5.7532176510        2.0817478462       -1.8888072704
 H         -6.3270300369        3.6046006107       -1.2078036276
 H         -4.9112786153        3.1660651329        0.8344758553
 H         -4.0294699654        3.4479275069       -0.6763582351
 O         -2.9168182541        1.3757346885       -0.9143333047
 C         -2.0824243324        0.2675374378       -0.9653259050
 O         -1.2446152506        0.3107397221       -1.8877758360
 H          0.7989536833       -1.2919859963       -1.5975523558
 C          1.0049506248       -1.1706597033       -0.5459924740
 C          0.0317890750       -1.4859245123        0.3887057624
 C          0.3132894119       -1.2866751031        1.7378461005
 C          1.5388651890       -0.7884652715        2.1364894982
 C          2.5064525926       -0.4684374465        1.1992883637
 C          2.2285236598       -0.6467111150       -0.1485593890
 N          3.1980143447       -0.3146941936       -1.1100632644
 S          4.0101561709        1.1453884067       -0.9554476683
 O          3.2125406128        2.1418866553       -0.2783378553
 O          4.4534349265        1.4750319022       -2.2927819083
 C          5.4329043439        0.7256920748        0.0323195395
 C          6.2058859397       -0.3491701336       -0.3616069135
 C          7.3222435796       -0.6814377398        0.3889194035
 C          7.6477081848        0.0642107952        1.5122448671
 C          6.8640015629        1.1426853091        1.8925502236
 C          5.7450154893        1.4795928327        1.1466040527
 H          5.1023947585        2.3054336952        1.4080645969
 H          7.1180219489        1.7215991002        2.7659638459
 H          8.5169622169       -0.1967761500        2.0949595042
 H          7.9336798851       -1.5198159478        0.0965038909
 H          5.9196179101       -0.9015669232       -1.2408291840
 H          2.8792091879       -0.4444066286       -2.0597945512
 H          3.4591339962       -0.0655463679        1.5017883728
 H          1.7441160876       -0.6426601532        3.1861632298
 H         -0.4506309126       -1.5140573048        2.4682569889
 C         -1.3451530889       -1.9518987788       -0.0131201909
 H         -1.7309834615       -2.6033961217        0.7824573555
 C         -1.3843669771       -2.7082871167       -1.3239451654
 C         -0.8252306801       -4.0974622944       -1.3847835234
 C         -2.3057859101       -3.8813425960       -1.4639038284
 H         -2.8011152073       -4.0358445429       -2.4108499505
 H         -2.9085841222       -4.1478169665       -0.6081927075
 H         -0.3018668249       -4.4046663659       -2.2772491378
 H         -0.4211512637       -4.5097150739       -0.4727858263
 H         -1.2623536585       -2.0722243264       -2.1923323610
 O         -3.4197266912       -1.5337336589        1.8777623537
