  62
        -98.94431610
 C         -2.6545321558       -1.0879501602        0.1823956361
 C         -2.7193965950       -0.2743708402       -0.9749853406
 C         -3.5182637970        0.9507901125       -0.8450975657
 C         -4.1454274639        1.2228906037        0.3137027022
 C         -5.0131354002        2.4208245125        0.5904626781
 C         -4.2317353335        3.6739682492        1.0091240835
 C         -3.4431720715        4.3538595387       -0.1110581762
 H         -4.1033398715        4.5354901245       -0.9595492053
 H         -3.1235605568        5.3267566296        0.2676020342
 C         -2.2051970474        3.5743875269       -0.5770907337
 H         -1.9445237299        2.8237656136        0.1730896208
 H         -1.3542141332        4.2545921351       -0.6562085732
 C         -2.3628803090        2.8843768079       -1.9322669995
 H         -2.4902809527        3.6368778351       -2.7134071741
 H         -1.4449853565        2.3294205728       -2.1430973244
 C         -3.5374417900        1.8998109370       -2.0049613540
 H         -4.4824399657        2.4410505200       -2.0414315020
 H         -3.4337144100        1.3096185593       -2.9185006894
 H         -3.5528664826        3.4067968878        1.8226891660
 H         -4.9545521185        4.3919524983        1.4033518254
 H         -5.6190575453        2.6448689552       -0.2877459330
 H         -5.6781669817        2.1404264644        1.4101624536
 O         -4.0705132277        0.4044404135        1.3982392398
 C         -3.3037424893       -0.7503648124        1.3684948179
 O         -3.2793799565       -1.3796588626        2.4471797789
 H         -0.3544329490       -0.3598042519        1.1136095911
 C          0.2164546849       -0.9585029139        0.4128405358
 C         -0.3944574946       -2.0474374174       -0.1971013982
 C          0.3560318490       -2.8169238465       -1.0761868899
 C          1.6718700471       -2.4854649261       -1.3504621733
 C          2.2672927335       -1.3872902726       -0.7584900301
 C          1.5313167941       -0.6191303767        0.1344695636
 N          2.1241519304        0.5054481000        0.7359145638
 S          3.6102295842        0.3062148818        1.4931368844
 O          3.7711784054       -1.0387218996        1.9956096320
 O          3.6803217289        1.3697839482        2.4715084462
 C          4.7964231260        0.6243257473        0.2043716584
 C          5.7821745996       -0.3039712017       -0.0675784331
 C          6.7037755724       -0.0291413829       -1.0660883967
 C          6.6236364712        1.1624500269       -1.7702660474
 C          5.6284969046        2.0851170238       -1.4832446059
 C          4.7051390325        1.8174679920       -0.4852992426
 H          3.9188233743        2.5081963888       -0.2299482292
 H          5.5688951334        3.0104104350       -2.0333534932
 H          7.3409207173        1.3738332625       -2.5475081825
 H          7.4784238364       -0.7446276521       -1.2904012303
 H          5.8008244672       -1.2193926412        0.5020022000
 H          1.4950545272        1.0261378613        1.3296044230
 H          3.2886650233       -1.1212846495       -0.9766088529
 H          2.2406402591       -3.0893000940       -2.0408824055
 H         -0.0907052586       -3.6750133347       -1.5507237453
 C         -1.8284565334       -2.3603036097        0.1596940765
 H         -1.8428928073       -2.7535019373        1.1875253496
 C         -2.4709511787       -3.3783645392       -0.7601278774
 C         -2.3339824111       -4.8444054055       -0.4828715770
 C         -3.6475192286       -4.1589270591       -0.2592468573
 H         -4.4604606370       -4.3618329128       -0.9400483510
 H         -3.9655301390       -3.9758253854        0.7572550759
 H         -2.2485247954       -5.5218661969       -1.3191042747
 H         -1.7632105924       -5.1389513029        0.3849866024
 H         -2.4911904608       -3.0491337504       -1.7925648815
 O         -2.1416243286       -0.5525160159       -2.0566076058
