  62
        -98.93606432
 C          2.4882884409        0.1319758144       -0.5969081589
 C          2.1866584636        0.6512524735        0.6857497901
 C          1.7770683771        2.0634788592        0.7223387329
 C          1.7053079600        2.7618946679       -0.4244384053
 C          1.3026287247        4.2044976649       -0.5326440922
 C         -0.2019858876        4.3622718058       -0.7850777974
 C         -1.0812898398        3.5652382027        0.1783833749
 H         -2.1205947419        3.8083626781       -0.0564364543
 H         -0.9554063914        2.4970206165       -0.0143373116
 C         -0.8144967254        3.8403776431        1.6648835889
 H         -1.7740553393        3.9386511005        2.1765993659
 H         -0.2854058752        4.7876141231        1.7805901539
 C         -0.0406866566        2.7290980258        2.3778547581
 H         -0.1432753409        2.8772079184        3.4564806223
 H         -0.4865998414        1.7631944412        2.1280894559
 C          1.4597844964        2.6559792771        2.0661633264
 H          1.9089129226        3.6467981846        2.1683396007
 H          1.9217742206        1.9900304791        2.8008658585
 H         -0.4207443384        4.0262483432       -1.8016549643
 H         -0.4511167611        5.4233411502       -0.7152986628
 H          1.5826359519        4.7195029224        0.3845094213
 H          1.8486753114        4.6468924099       -1.3682337438
 O          1.9873265700        2.2226081931       -1.6402829787
 C          2.3672481879        0.8964989681       -1.7551504550
 O          2.5818746259        0.5221095338       -2.9287110720
 H          0.3762049692       -1.2471975682       -1.1764446348
 C          0.5936263874       -1.9707759028       -0.4021294994
 C          1.9178928820       -2.1847747536       -0.0234376547
 C          2.1565386557       -3.1291423027        0.9659283082
 C          1.1048962360       -3.8058720414        1.5638520065
 C         -0.2061216082       -3.5491501630        1.2152550973
 C         -0.4607953428       -2.6126690515        0.2199151916
 N         -1.7761087423       -2.3016865324       -0.1774327559
 S         -2.0815630425       -0.6621264201       -0.4715715309
 O         -1.7533756352       -0.3677404699       -1.8455949080
 O         -1.4395859674        0.1481980068        0.5354030910
 C         -3.8526702174       -0.6154155851       -0.2673175947
 C         -4.3957241182       -0.0593721988        0.8748946780
 C         -5.7735816348       -0.0571740357        1.0289930516
 C         -6.5790782378       -0.6111290344        0.0456819433
 C         -6.0189180417       -1.1652952155       -1.0961568582
 C         -4.6427326120       -1.1686656626       -1.2576381415
 H         -4.1618317015       -1.5776114890       -2.1309502679
 H         -6.6483274569       -1.5925568669       -1.8599488588
 H         -7.6505726505       -0.6089422009        0.1683554998
 H         -6.2114258752        0.3758568981        1.9138227052
 H         -3.7287737514        0.3631750688        1.6092820710
 H         -2.4679778775       -2.6897415988        0.4506482752
 H         -1.0215874329       -4.0575496691        1.7069270469
 H          1.3167288657       -4.5309788342        2.3352848077
 H          3.1526617602       -3.3371732391        1.3106408697
 C          2.9144955058       -1.3237811303       -0.7641404847
 H          2.7733421869       -1.5409904947       -1.8374600021
 C          4.4133504857       -1.4139705372       -0.5199583303
 C          5.0664424401       -1.5823734400        0.8155585774
 C          5.1799799920       -2.6663081104       -0.2166757673
 H          6.1342993060       -2.7936069476       -0.7064747359
 H          4.6383995008       -3.5880896410       -0.0847371935
 H          4.4276894594       -1.7138759674        1.6734684048
 H          5.9414241783       -0.9833124643        1.0235130032
 H          4.9084941170       -0.7199062906       -1.1971031932
 O          2.2719006444       -0.0178920180        1.7468327084
