  62
        -98.93882431
 C         -1.0938457622       -1.6131813276       -0.2352413939
 C         -1.1486418477       -0.1945473409       -0.1993123495
 C         -2.2731918967        0.3914586737        0.5466334454
 C         -3.1321902741       -0.3941252376        1.2151388729
 C         -4.3083651973        0.0620643989        2.0346719542
 C         -5.5729214556        0.3373313217        1.2089300409
 C         -5.5298471160        1.6030929551        0.3514175578
 H         -6.5484721976        1.7884446360        0.0047327465
 H         -5.2382556358        2.4503574275        0.9728487735
 C         -4.6019979110        1.5125765635       -0.8683916728
 H         -4.3712058663        0.4641700008       -1.0714179936
 H         -5.1188021465        1.9024259074       -1.7481497626
 C         -3.2932559300        2.2905226772       -0.7279849165
 H         -3.5096563800        3.3584285784       -0.6551654669
 H         -2.6970382852        2.1264485770       -1.6288948636
 C         -2.4446176668        1.8792704893        0.4821277650
 H         -1.4512213138        2.3209016092        0.3753111081
 H         -2.8948546751        2.2484641976        1.4035731496
 H         -6.4055182839        0.4275259927        1.9105218157
 H         -5.7681119743       -0.5286697828        0.5719978927
 H         -4.0373009185        0.9547475614        2.5995482610
 H         -4.5253811650       -0.7421903357        2.7412244260
 O         -3.0057347464       -1.7469484398        1.2291916962
 C         -2.0169638887       -2.3763730355        0.4958777177
 O         -2.0619334859       -3.6225637045        0.5775120814
 O         -0.3316133883        0.5859767619       -0.7511638614
 C         -0.0756705546       -2.4657580702       -0.9832649464
 C          1.3049534983       -2.4494879850       -0.3664272635
 C          1.9727354629       -3.6462759522       -0.1236082734
 C          3.2400037444       -3.6470223568        0.4301869780
 C          3.8601863379       -2.4574978709        0.7704796475
 C          3.2012652092       -1.2581788488        0.5311897723
 C          1.9426596673       -1.2601813894       -0.0519920179
 H          1.4461929065       -0.3234889202       -0.2345877416
 N          3.7931984418       -0.0259889179        0.8461971788
 S          2.8451886366        1.2217719761        1.4407184617
 O          3.7809724939        2.0694031299        2.1565184105
 O          1.7413496001        0.7230346737        2.2304414526
 C          2.2677998044        2.1236968010        0.0193428390
 C          2.8097109332        1.9047641786       -1.2294396945
 C          2.3447110393        2.6547655858       -2.2981086257
 C          1.3593493111        3.6081791263       -2.1007120852
 C          0.8321910517        3.8218029716       -0.8373037105
 C          1.2903376480        3.0735165835        0.2341522266
 H          0.8978473958        3.1947265507        1.2322606415
 H          0.0592890281        4.5588429894       -0.6853861873
 H          0.9928209686        4.1827834418       -2.9369362996
 H          2.7471559013        2.4844104719       -3.2839717190
 H          3.5638702864        1.1459019101       -1.3577454003
 H          4.6791232253       -0.0801612714        1.3269944898
 H          4.8416986190       -2.4568921799        1.2199792665
 H          3.7454966397       -4.5831919832        0.6134094224
 H          1.4844672679       -4.5808963374       -0.3600440435
 H         -0.4621197625       -3.4883184559       -0.8511336963
 C          0.0405832892       -2.2783441762       -2.4952477231
 C         -1.0112903791       -1.5994870697       -3.3171004941
 C          0.3512521007       -0.9877553598       -3.1872695448
 H          1.0123157779       -1.0230800448       -4.0409712398
 H          0.4420623354       -0.0986829942       -2.5860245608
 H         -1.3036765305       -2.0466536821       -4.2558773373
 H         -1.8235184500       -1.1224225012       -2.7874216435
 H          0.4895945050       -3.1605041700       -2.9444834696
