  62
        -98.94528627
 C          2.4832177603        1.1777606303       -0.0214877266
 C          3.1616420901        0.3462585128        0.9006369176
 C          3.7653748730       -0.8726904169        0.3474319152
 C          3.6333106901       -1.1332866718       -0.9662250946
 C          4.1370410226       -2.3713331903       -1.6487832105
 C          3.0626941674       -3.4679266094       -1.6668120925
 C          2.4145924916       -3.7214783054       -0.3053757613
 H          1.8391020240       -2.8383053323       -0.0148488802
 H          1.6965829680       -4.5349602337       -0.4329604578
 C          3.4040785707       -4.0799121488        0.8127281009
 H          4.3509008819       -4.4020647749        0.3781195708
 H          3.0014250475       -4.9236911117        1.3769831328
 C          3.6642431266       -2.9556130244        1.8170251279
 H          2.7105472572       -2.5678740041        2.1851542626
 H          4.1957970361       -3.3806207713        2.6725340225
 C          4.4978952600       -1.7766046210        1.2990151775
 H          4.7632326082       -1.1550144175        2.1591949107
 H          5.4185881516       -2.1485896955        0.8457808308
 H          3.5161944197       -4.3909271427       -2.0325376749
 H          2.2767044306       -3.1734784365       -2.3665969329
 H          4.3980684204       -2.1153607847       -2.6768903307
 H          5.0273950013       -2.7282429588       -1.1349074218
 O          2.9723081148       -0.3129481063       -1.8215559517
 C          2.3625866321        0.8500325396       -1.3724977163
 O          1.7669401265        1.4906420144       -2.2580657185
 H          0.3289676633        0.4311266765        1.4017753119
 C         -0.2877207906        1.1314217389        0.8504420774
 C          0.3039891083        2.2667519201        0.3081508844
 C         -0.4958572384        3.1564816292       -0.3947692010
 C         -1.8462391649        2.8994730088       -0.5633678703
 C         -2.4265463250        1.7619240429       -0.0336017448
 C         -1.6366373032        0.8699522367        0.6807427132
 N         -2.2199964350       -0.2932558064        1.2258770276
 S         -2.9101706412       -1.3580015505        0.1187474193
 O         -2.8830463319       -2.6507058421        0.7688321469
 O         -2.2634184498       -1.2733357981       -1.1710532864
 C         -4.5962736985       -0.8001269814        0.0021341458
 C         -5.1110750046       -0.4131263508       -1.2194036244
 C         -6.4267361567        0.0193262659       -1.2843991531
 C         -7.1988138191        0.0564286601       -0.1332870247
 C         -6.6668236916       -0.3379532892        1.0855640224
 C         -5.3530702496       -0.7725825396        1.1573963897
 H         -4.9011779298       -1.0914293365        2.0817110965
 H         -7.2704209489       -0.3074533741        1.9782607916
 H         -8.2212856675        0.3954642898       -0.1866404754
 H         -6.8417281697        0.3261063491       -2.2310188000
 H         -4.4693841119       -0.4522333273       -2.0853197335
 H         -1.5893510212       -0.8021782364        1.8300639556
 H         -3.4757563506        1.5564333478       -0.1700489226
 H         -2.4548191708        3.5950550616       -1.1206813394
 H         -0.0600360150        4.0429148801       -0.8248274885
 C          1.7929339825        2.4304872528        0.4916043811
 H          2.0041386214        2.4581323186        1.5708329939
 C          2.3622458627        3.6766049272       -0.1494342527
 C          2.2529695245        4.9953876508        0.5542854606
 C          3.5806177587        4.3086389203        0.4515516398
 H          4.3270001917        4.7201755933       -0.2110423723
 H          3.9914168166        3.8500597580        1.3392558865
 H          2.0893306099        5.8832737033       -0.0372069275
 H          1.7623878633        5.0084967098        1.5156761467
 H          2.2883598039        3.6623698710       -1.2306343150
 O          3.2493433316        0.6060680174        2.1320636886
