  62
        -98.93387813
 C         -2.0892961006       -0.4967098097        0.3924220401
 C         -3.1044619306       -0.7009912596       -0.5715675600
 C         -4.0108814105        0.4371221305       -0.8203698301
 C         -3.8158139703        1.5917820305       -0.1622678402
 C         -4.6511249702        2.8400649206       -0.2338577904
 C         -5.7108586402        2.8477177708        0.8811692096
 C         -7.0213808403        2.1441043410        0.5299815296
 H         -7.6224376803        2.1045783211        1.4413330196
 H         -7.5682733602        2.7479697510       -0.1971452705
 C         -6.8752562705        0.7246984809       -0.0246759202
 H         -6.1259433906        0.1794547709        0.5520495398
 H         -7.8282317305        0.2110841910        0.1164953898
 C         -6.5113602404        0.6944911807       -1.5165185802
 H         -6.6544950103        1.6896467507       -1.9371669603
 H         -7.2028929605        0.0334747507       -2.0428991802
 C         -5.0935700105        0.1973665905       -1.8376659401
 H         -4.7730495004        0.6239419304       -2.7938223601
 H         -5.1106237606       -0.8886712295       -1.9708557300
 H         -5.9413307001        3.8836324309        1.1381580295
 H         -5.2676649403        2.3830316809        1.7658574697
 H         -3.9707501101        3.6791019705       -0.0735693104
 H         -5.1091525101        2.9415651706       -1.2132110204
 O         -2.8108970304        1.7561352405        0.7429244698
 C         -1.9409717405        0.7285631804        1.0488551299
 O         -1.0937307405        1.0195035704        1.9188708599
 O         -3.2778237207       -1.7780833297       -1.2003816199
 C         -1.0856267308       -1.5727526398        0.7788709402
 C         -0.0016604808       -1.6876095300       -0.2669495797
 C         -0.2336813808       -2.2795288801       -1.5042201397
 C          0.7800022692       -2.3568704503       -2.4413995597
 C          2.0375933093       -1.8505400605       -2.1664623097
 C          2.2815968293       -1.2608974604       -0.9311794497
 C          1.2624818593       -1.1834211601        0.0074916502
 H          1.4555693393       -0.7041595201        0.9561805902
 N          3.5664119994       -0.7844401405       -0.6152459697
 S          3.7288520995        0.5859519196        0.3565885202
 O          3.5095986994        0.2108963297        1.7304737002
 O          2.9178402297        1.6649048596       -0.1634312100
 C          5.4607790296        0.9306403393        0.1051154702
 C          5.8425495097        1.9272445292       -0.7725941999
 C          7.1940575598        2.1587235090       -0.9773111999
 C          8.1351911196        1.3916251989       -0.3075060298
 C          7.7366978495        0.3951130491        0.5713448003
 C          6.3875300694        0.1598702993        0.7818572703
 H          6.0298629793       -0.5960777806        1.4611497604
 H          8.4710715194       -0.1975154410        1.0925253804
 H          9.1859241397        1.5733406788       -0.4692435197
 H          7.5067365399        2.9350632289       -1.6568826899
 H          5.0751755198        2.5026179392       -1.2653065700
 H          4.1642250094       -0.7208386207       -1.4287560497
 H          2.8268271393       -1.9122888206       -2.9004234696
 H          0.5867674392       -2.8128731504       -3.4006905396
 H         -1.2199025608       -2.6504790900       -1.7334211497
 H         -0.6120147508       -1.2111109097        1.7023244302
 C         -1.7322535810       -2.9134923897        1.0678934003
 C         -0.9740485111       -3.9185211997        1.8793365904
 C         -2.1677604611       -3.2276487395        2.4658379103
 H         -3.0759242811       -3.7941339993        2.6073529203
 H         -2.0007781810       -2.4740290794        3.2223984503
 H         -1.0603028013       -4.9620738797        1.6189857005
 H          0.0034525789       -3.6322744598        2.2385559204
 H         -2.3537896810       -3.2782746196        0.2615676103
