  62
        -98.93570364
 C          2.1949727394        1.2268608507       -0.1193087904
 C          2.9832636595        0.5542778311        0.8400897498
 C          3.8375126093       -0.5422214693        0.3469833903
 C          3.7914504390       -0.8671973000       -0.9578568495
 C          4.5620602587       -1.9343074905       -1.6936452391
 C          4.6741856587       -3.3043373001       -1.0069997783
 C          6.0826366588       -3.6162761800       -0.4979888384
 H          6.1973517187       -4.7003676300       -0.4298330878
 H          6.8051007187       -3.2580491405       -1.2342113888
 C          6.4238978091       -3.0296208092        0.8707466512
 H          5.8736205392       -3.5708810887        1.6436254416
 H          7.4878145891       -3.2028695993        1.0486220311
 C          6.1374078593       -1.5353641791        1.0319809504
 H          6.7660445195       -1.1604623787        1.8424844101
 H          6.4221156992       -0.9922197397        0.1316096800
 C          4.6769475394       -1.2246742087        1.3926619805
 H          4.6464819996       -0.5502841183        2.2543088501
 H          4.1688715994       -2.1395231585        1.7122813811
 H          3.9532573989       -3.3726164496       -0.1936243181
 H          4.4055403185       -4.0665709205       -1.7401784578
 H          5.5602443387       -1.5486317607       -1.9151861195
 H          4.0501896285       -2.0408299810       -2.6527208189
 O          2.9960975089       -0.2033415804       -1.8451486998
 C          2.1845905691        0.8507674999       -1.4618879002
 O          1.5175951790        1.3503371194       -2.3860493004
 O          2.9742982498        0.8536731218        2.0665779196
 C          1.3002717896        2.3683239610        0.3255094791
 C         -0.1473891505        2.0416117310        0.0483832796
 C         -1.0456734605        2.9538265008       -0.4891669208
 C         -2.3642407806        2.5931226808       -0.7083368903
 C         -2.8161341807        1.3240603211       -0.3984355195
 C         -1.9305290307        0.4077507313        0.1542802108
 C         -0.6129024506        0.7748004613        0.3795798704
 H          0.0749563894        0.0590329914        0.8142277107
 N         -2.3726385207       -0.8903580085        0.4619662217
 S         -3.7848419606       -1.0704749778        1.3513500820
 O         -4.0077600203        0.0576069627        2.2256542914
 O         -3.6651688306       -2.3637784275        1.9887685528
 C         -5.0631458408       -1.1490589784        0.1149022123
 C         -4.9508671911       -2.1038018890       -0.8767299771
 C         -5.9409158213       -2.1843418394       -1.8427732769
 C         -7.0215370712       -1.3158227693       -1.7994289372
 C         -7.1214946209       -0.3653181087       -0.7951001277
 C         -6.1338815107       -0.2787701783        0.1739189720
 H         -6.1663539605        0.4474524122        0.9704256316
 H         -7.9625291608        0.3084778514       -0.7631737379
 H         -7.7901097614       -1.3806762696       -2.5533100270
 H         -5.8662116016       -2.9218971099       -2.6255898665
 H         -4.0970830212       -2.7608319391       -0.8731542969
 H         -1.6460953007       -1.4926903484        0.8204054919
 H         -3.8397706907        1.0379591911       -0.5762797592
 H         -3.0492396106        3.3108372907       -1.1330937006
 H         -0.7131199404        3.9471725906       -0.7413626414
 H          1.4289194398        2.4331361916        1.4168648490
 C          1.7576497596        3.6711849706       -0.2963813017
 C          1.5554522799        4.9681579810        0.4268883776
 C          2.9300983498        4.3848848908        0.3047093876
 H          3.6385267597        4.8612156804       -0.3562179828
 H          3.3806235899        3.9447856513        1.1825658378
 H          1.3220791699        5.8499110407       -0.1505937929
 H          1.0748454401        4.9325853516        1.3929696577
 H          1.6754391494        3.6659867300       -1.3773682217
