  62
        -98.94703399
 C          1.5173009070        1.0691882456        0.0842319338
 C          2.5332924785        0.6155622793        0.9556677680
 C          3.1103835057       -0.6971972542        0.6418913995
 C          2.6207539114       -1.3986791470       -0.3973993488
 C          3.1425494842       -2.7305498565       -0.8517759877
 C          4.2417163907       -2.5683150931       -1.9111722992
 C          5.3318076992       -1.5701994004       -1.5206712996
 H          4.8959580445       -0.5699603439       -1.4690062628
 H          6.0677111341       -1.5602850957       -2.3273898562
 C          6.0335641602       -1.8851278464       -0.1923270192
 H          7.1103876493       -1.7645950571       -0.3274463681
 H          5.8556749407       -2.9252255301        0.0831533149
 C          5.6269049184       -0.9775463644        0.9699929326
 H          5.7143897019        0.0684906653        0.6659022017
 H          6.3303129410       -1.1401607211        1.7909408322
 C          4.2154359435       -1.1992271054        1.5287582264
 H          4.1331566143       -0.6302624900        2.4599269652
 H          4.0716348404       -2.2567726997        1.7615318759
 H          3.7788136237       -2.2257883799       -2.8393993857
 H          4.6894312853       -3.5465999322       -2.0950832586
 H          3.5279230460       -3.2751870868        0.0082743492
 H          2.3107110044       -3.2933548944       -1.2793681430
 O          1.6169652115       -0.9480173657       -1.1894144577
 C          1.0292531044        0.2842638288       -0.9616611810
 O          0.1076162116        0.5700106811       -1.7496734544
 H         -0.2991875985        0.5455146281        1.8269083770
 C         -1.0381924027        1.1627024339        1.3299109540
 C         -0.6195056241        2.2175439833        0.5275066848
 C         -1.5870472248        2.9960521682       -0.0941909721
 C         -2.9317610910        2.6984942442        0.0502517321
 C         -3.3378889601        1.6075486338        0.7970003659
 C         -2.3779454131        0.8398870691        1.4416894946
 N         -2.7920754814       -0.3406495630        2.1295205692
 S         -2.5554909546       -1.6871194019        1.1303557739
 O         -3.0749777145       -2.8194124948        1.8694195423
 O         -1.1703655593       -1.8053119114        0.7236229768
 C         -3.6081768361       -1.3124207981       -0.2496228151
 C         -4.9504543319       -1.6232865089       -0.1457418821
 C         -5.7982235563       -1.2847876732       -1.1875268654
 C         -5.2911765365       -0.6380022742       -2.3050376020
 C         -3.9417708714       -0.3320158636       -2.3908437801
 C         -3.0849090550       -0.6692506848       -1.3538223533
 H         -2.0310410866       -0.4353752561       -1.3914354119
 H         -3.5434676099        0.1747008514       -3.2551703796
 H         -5.9511090080       -0.3691864502       -3.1147867264
 H         -6.8480799101       -1.5214463066       -1.1240232506
 H         -5.2938507636       -2.1258371448        0.7435185969
 H         -2.2652461549       -0.4970873448        2.9798570305
 H         -4.3778264132        1.3387640957        0.8846829579
 H         -3.6698101205        3.3086822280       -0.4465534549
 H         -1.2854394275        3.8279020140       -0.7095129789
 C          0.8639770850        2.4157337576        0.3447658737
 H          1.2932077513        2.7741946587        1.2924551805
 C          1.2129818547        3.3963782771       -0.7550567203
 C          1.2794882907        4.8659133416       -0.4672867803
 C          2.5392993627        4.0920134903       -0.7098503269
 H          3.0724991536        4.2461736949       -1.6358973533
 H          3.1814378958        3.8778232452        0.1321608835
 H          1.0704606875        5.1877335522        0.5416086387
 H          0.9503341183        5.5558735717       -1.2293613741
 H          0.8480530855        3.0770861047       -1.7249643503
 O          2.9321814706        1.2756660585        1.9556062131
