  62
        -98.94393234
 C         -1.7896800975        0.6402853395       -0.5663775798
 C         -3.0669278384        0.6112134719       -1.1753151413
 C         -4.2110007673        0.5335383384       -0.2602456988
 C         -4.0023417945        0.5185468487        1.0690569187
 C         -5.0671428049        0.4693471516        2.1311134059
 C         -5.5726901442       -0.9454333525        2.4448697144
 C         -6.4592533093       -1.5731202758        1.3685178063
 H         -6.9157904898       -2.4623408753        1.8078642032
 H         -7.2661747372       -0.8843032073        1.1164458663
 C         -5.7113954774       -1.9824222330        0.0919138724
 H         -4.6392612532       -2.0278805112        0.2974743522
 H         -6.0216438240       -2.9865544441       -0.2061425144
 C         -5.9481500505       -1.0612468524       -1.1050315512
 H         -5.3431752843       -1.4227209520       -1.9407104081
 H         -6.9975630816       -1.1116569280       -1.4037115892
 C         -5.5812029333        0.4073670214       -0.8544403979
 H         -6.3227110697        0.8750187255       -0.2070171158
 H         -5.5764991053        0.9279506957       -1.8153060039
 H         -4.7114627406       -1.5917205203        2.6301282553
 H         -6.1491165188       -0.8875807700        3.3710926397
 H         -5.9069985941        1.0999583673        1.8380470440
 H         -4.6208056003        0.8834681368        3.0377850324
 O         -2.7592442719        0.5689795790        1.6159905529
 C         -1.6232134496        0.6109747734        0.8185853806
 O         -0.5535784419        0.6236149886        1.4535798000
 O         -3.2408878802        0.6488676793       -2.4234738561
 C         -0.5617070761        0.7139935315       -1.4520584976
 C          0.3580644958       -0.4630000699       -1.2351732184
 C         -0.1621106356       -1.7112654592       -0.9069876654
 C          0.6687112281       -2.7936180065       -0.6854346047
 C          2.0413582904       -2.6622226133       -0.8029086784
 C          2.5700857822       -1.4306652917       -1.1588466628
 C          1.7339074042       -0.3420152246       -1.3733687488
 H          2.1659070016        0.6097731156       -1.6428320071
 N          3.9740635999       -1.3010311594       -1.2767201620
 S          4.8112628948       -1.2352912164        0.1755615939
 O          6.2088478455       -1.1282135991       -0.1761662994
 O          4.4333996574       -2.3695058965        0.9771870741
 C          4.2576486008        0.2872641917        0.9204298132
 C          3.0034659646        0.3269111036        1.4956261694
 C          2.5210320750        1.5365532320        1.9704598364
 C          3.3014927313        2.6777813438        1.8676012033
 C          4.5641102806        2.6201701001        1.2953092981
 C          5.0450084116        1.4168303316        0.8060299095
 H          6.0155203008        1.3272166501        0.3449273716
 H          5.1681347693        3.5103348120        1.2211797131
 H          2.9201701578        3.6180900172        2.2344496710
 H          1.5264451196        1.5702291045        2.3865117269
 H          2.4115513895       -0.5713669727        1.5648758680
 H          4.2530536234       -0.5117079471       -1.8442258230
 H          2.7068112715       -3.4877677710       -0.6112273800
 H          0.2437265980       -3.7494638412       -0.4178225225
 H         -1.2337605485       -1.8236759027       -0.8140951493
 H         -0.9451305487        0.6622013444       -2.4829048674
 C          0.1392435956        2.0452460778       -1.2590861359
 C          0.8001747702        2.7386079892       -2.4122035336
 C         -0.4778020068        3.2780555983       -1.8457689169
 H         -0.4469643324        4.1933950473       -1.2744801665
 H         -1.3850842036        3.1516819389       -2.4185721439
 H          1.7112057998        3.2887779444       -2.2291766616
 H          0.7582706705        2.2590168348       -3.3787780162
 H          0.5975433330        2.1320064486       -0.2800815598
