  62
        -98.94720662
 C          0.8744641511        1.5993766946       -0.8361011673
 C          2.1584386654        1.6322386081       -0.2328467918
 C          3.0235701291        0.4734271254       -0.4694828803
 C          2.5782538678       -0.5420563270       -1.2299849241
 C          3.3252232139       -1.8086392215       -1.5482482482
 C          3.2117611310       -2.8758245766       -0.4507649003
 C          4.0383548523       -2.6026847299        0.8062818319
 H          4.0641888945       -3.5316265574        1.3797500763
 H          5.0646546973       -2.3636203955        0.5241326889
 C          3.4731348179       -1.4913902264        1.7022561776
 H          2.4218113555       -1.3190995678        1.4558615201
 H          3.4972932944       -1.8203024022        2.7444320756
 C          4.2341691673       -0.1667548316        1.6321408985
 H          5.2408000966       -0.3025184839        2.0355674365
 H          3.7120368358        0.5572871975        2.2630625902
 C          4.3514170481        0.4299982345        0.2240326888
 H          4.7101286395        1.4581828114        0.3189702766
 H          5.0698774925       -0.1385671444       -0.3664854648
 H          3.5399613825       -3.8259513232       -0.8795044416
 H          2.1613184396       -2.9803152679       -0.1656187306
 H          4.3763461003       -1.5835036374       -1.7313063741
 H          2.8891181343       -2.2069407113       -2.4670033625
 O          1.3612471635       -0.5213837577       -1.8274326027
 C          0.4653053242        0.5194983629       -1.6190718039
 O         -0.6264896747        0.3470340533       -2.1965229740
 O          2.5632664599        2.5957637091        0.4736173104
 C         -0.0650375635        2.7380333925       -0.4765857601
 C         -0.8486146480        2.3600610844        0.7603511407
 C         -0.9869548011        3.2349760433        1.8312136535
 C         -1.6489707513        2.8391274719        2.9804564138
 C         -2.1477955162        1.5540223755        3.1006526495
 C         -2.0151064165        0.6738768749        2.0332569838
 C         -1.4095910016        1.0960554550        0.8609472240
 H         -1.3371971959        0.4082974968        0.0347405447
 N         -2.4671191063       -0.6523367274        2.1049104004
 S         -1.5327988910       -1.8515542620        1.3910634933
 O         -1.8739752804       -3.0537372856        2.1277853849
 O         -0.1295915129       -1.5075803974        1.3811301129
 C         -2.1619874736       -2.0236109057       -0.2629888939
 C         -1.3174267040       -2.5172816584       -1.2354230207
 C         -1.8081014003       -2.7132434028       -2.5154863885
 C         -3.1308622561       -2.4149489977       -2.7981366455
 C         -3.9680378308       -1.9223961047       -1.8092035964
 C         -3.4837240988       -1.7266615032       -0.5262397487
 H         -4.1043044148       -1.3370131531        0.2637103521
 H         -4.9953432196       -1.6850093588       -2.0352662981
 H         -3.5085649128       -2.5610386488       -3.7979468364
 H         -1.1521106179       -3.0848047381       -3.2863192954
 H         -0.2881524293       -2.7173941873       -0.9812506189
 H         -2.8177447266       -0.9409176609        3.0068881239
 H         -2.6250441305        1.2303894639        4.0130926850
 H         -1.7514537936        3.5286068416        3.8046772465
 H         -0.5522980626        4.2215097843        1.7697322463
 H          0.5838402370        3.5847488210       -0.2123129219
 C         -0.9949215967        3.1737933321       -1.5904063416
 C         -1.5372947259        4.5705998639       -1.5838268464
 C         -0.5137055510        4.1685745392       -2.6019793308
 H         -0.8216008531        4.0454144266       -3.6290967660
 H          0.4924719655        4.5460676182       -2.4907835063
 H         -2.5533985303        4.7278414108       -1.9108384399
 H         -1.2250971607        5.2277353031       -0.7865608478
 H         -1.6422708580        2.3809921849       -1.9410429559
