  62
        -98.93201076
 C          2.1970931166        1.0266439892       -0.4137433375
 C          3.5824475818        1.1016560899       -0.1210549481
 C          4.3931049211       -0.1121585667       -0.3365026488
 C          3.7774132872       -1.2290303956       -0.7651801033
 C          4.3735885325       -2.5897820507       -1.0088487564
 C          4.6473136828       -3.3560925240        0.2951735057
 C          5.2954572236       -2.5290614336        1.4024759928
 H          4.6549395069       -1.6757455470        1.6338233859
 H          5.3382821848       -3.1523258501        2.2996957228
 C          6.7108143230       -2.0384934670        1.1063175401
 H          7.3544742999       -2.8994041850        0.9123173396
 H          7.0782854770       -1.5466848002        2.0106394479
 C          6.8499760839       -1.0551975897       -0.0579265174
 H          6.8061294939       -1.5699496059       -1.0139604803
 H          7.8474870261       -0.6112839151        0.0097511190
 C          5.8571550020        0.1027847690       -0.0368976285
 H          5.8957902919        0.5908743253        0.9436252131
 H          6.1955603137        0.8645537291       -0.7498698037
 H          3.6921898529       -3.7281277359        0.6745816380
 H          5.2768797477       -4.2169689472        0.0639634667
 H          3.6427956767       -3.1518467916       -1.5945640274
 H          5.2778333691       -2.5009540677       -1.6035504661
 O          2.4372774201       -1.2673424810       -1.0055146775
 C          1.6119572216       -0.1661467387       -0.8420684962
 O          0.4197601459       -0.3955373242       -1.1198801447
 O          4.1332462799        2.1494133516        0.3123218729
 C          1.3688996210        2.2754438882       -0.1595387167
 C          0.2060660957        1.9308495296        0.7342505157
 C          0.4027048154        1.8319077713        2.1082588763
 C         -0.6307472861        1.4501074924        2.9435337599
 C         -1.8763708321        1.1453147245        2.4236812512
 C         -2.0765472165        1.2270461775        1.0525724974
 C         -1.0457523815        1.6383302103        0.2179737030
 H         -1.2066043612        1.6868975821       -0.8476198580
 N         -3.3350590140        0.9015239598        0.5118602571
 S         -4.0966983571       -0.4679092537        1.1453727446
 O         -4.8494642335       -0.0643176606        2.3088702266
 O         -3.1429352176       -1.5328403243        1.3583370821
 C         -5.2123246533       -0.8863424531       -0.1796121758
 C         -6.5221500276       -0.4495400339       -0.1338748982
 C         -7.3697670565       -0.7651615372       -1.1842047301
 C         -6.8953968676       -1.5059511249       -2.2561715870
 C         -5.5770251562       -1.9362952798       -2.2884150830
 C         -4.7238245044       -1.6239958779       -1.2419450831
 H         -3.6934007169       -1.9444806890       -1.2230045589
 H         -5.2099389082       -2.5124971011       -3.1225813378
 H         -7.5564437719       -1.7523834662       -3.0719779531
 H         -8.3953638344       -0.4338559423       -1.1629125667
 H         -6.8455987259        0.1174356166        0.7233545001
 H         -3.2985481812        0.8506891575       -0.4975592240
 H         -2.6872098716        0.8224939974        3.0573601544
 H         -0.4649347603        1.3789406457        4.0082419798
 H          1.3821196657        2.0455124520        2.5141708334
 H          2.0468983572        2.9374913952        0.4025624360
 C          0.9535007701        3.0424392981       -1.4058468522
 C          1.9151109408        3.2155217500       -2.5425847329
 C          0.6766175401        2.3935542631       -2.7273135420
 H         -0.1195216066        2.8005679218       -3.3339101963
 H          0.7735844070        1.3219614606       -2.7984384058
 H          1.9754882620        4.1776610901       -3.0282517712
 H          2.8619217622        2.7001499827       -2.4704710391
 H          0.3420891338        3.9040942932       -1.1545660282
