  62
        -98.94025612
 C          2.6185840981        0.7944474537       -0.0990936736
 C          2.1665779135       -0.1769328371       -1.0277364917
 C          2.6720925236       -1.5428659476       -0.8179191159
 C          3.5393505623       -1.8003450944        0.1765191049
 C          4.1791643041       -3.1281442195        0.4814332112
 C          3.3194368347       -4.0587400698        1.3469399321
 C          2.1115261511       -4.6707251905        0.6370849607
 H          2.4354967745       -5.1384469159       -0.2931323581
 H          1.7249855274       -5.4613042448        1.2832052819
 C          0.9806636240       -3.6742993305        0.3463608669
 H          1.1092975711       -2.7796631465        0.9604197301
 H          0.0208862496       -4.1127623905        0.6279076826
 C          0.8617725258       -3.2472810686       -1.1166200656
 H          0.0580680849       -2.5087837449       -1.1840758001
 H          0.5817418850       -4.1079149306       -1.7291761242
 C          2.1376797593       -2.6280623896       -1.7026770472
 H          2.8927565684       -3.3990131142       -1.8598945561
 H          1.8878884015       -2.1785065369       -2.6671459906
 H          2.9821971373       -3.5053525244        2.2262788976
 H          3.9637099045       -4.8713149648        1.6905308677
 H          5.1013984324       -2.9082338565        1.0237395698
 H          4.4353325697       -3.6313943938       -0.4513592725
 O          3.9732287963       -0.8346658883        1.0299551657
 C          3.5041122947        0.4630246837        0.9309755179
 O          3.9601270488        1.2338626454        1.8008936596
 O          1.3965765613        0.0558947431       -1.9972699879
 C          2.1843970823        2.2502469768       -0.1159460440
 C          0.8978517344        2.4645408637        0.6480200185
 C          0.7788189999        3.5312299543        1.5317123169
 C         -0.4049779964        3.7536072134        2.2112822365
 C         -1.4892810943        2.9175345655        2.0220711267
 C         -1.3775225398        1.8387307518        1.1500347316
 C         -0.1899676447        1.6225400624        0.4655291863
 H         -0.1236518964        0.7927704919       -0.2206852357
 N         -2.4518734946        0.9506475867        0.9938834129
 S         -2.6363126930        0.0616600990       -0.4273763932
 O         -1.7365515239       -1.0609611721       -0.3946500901
 O         -2.5661763390        0.9360052513       -1.5763177265
 C         -4.3105420025       -0.5109296627       -0.2003671188
 C         -4.5273194968       -1.6430165656        0.5619763011
 C         -5.8282157909       -2.0739685503        0.7680237487
 C         -6.8855171585       -1.3690362397        0.2121457559
 C         -6.6528690469       -0.2359239998       -0.5527748167
 C         -5.3539519376        0.2004878108       -0.7617787421
 H         -5.1240918263        1.0692472697       -1.3575636583
 H         -7.4764611308        0.3077329885       -0.9867717707
 H         -7.8969766096       -1.7069240769        0.3733848261
 H         -6.0122396149       -2.9565052765        1.3592086063
 H         -3.6731036738       -2.1618087907        0.9651680719
 H         -3.3309513860        1.3288515505        1.3184745536
 H         -2.4139853692        3.0875471331        2.5520407129
 H         -0.4851340675        4.5865021708        2.8930791664
 H          1.6263783806        4.1811701087        1.6907710224
 H          2.9766117998        2.8016386613        0.4106658907
 C          2.0458186594        2.8342527452       -1.5094196290
 C          2.2619993769        4.3025284122       -1.7128604319
 C          3.2672295806        3.3178064151       -2.2287313687
 H          3.3357492685        3.1512298919       -3.2930892256
 H          4.2128980567        3.2363691115       -1.7122538347
 H          1.6354969655        4.8185631916       -2.4240591866
 H          2.5328583154        4.8953841784       -0.8524922052
 H          1.2777035087        2.3504556382       -2.0993995679
