  62
        -98.93989131
 C         -1.1031434066       -1.8468365898        0.5329650300
 C         -1.8344606495       -1.5698468691       -0.6486731231
 C         -3.0025589142       -0.6860393640       -0.4836836514
 C         -3.2396466867       -0.1097841011        0.7077475449
 C         -4.3793583455        0.8231257034        0.9984661933
 C         -4.0096935579        2.2892257485        0.7369096615
 C         -3.3453608585        2.5293960942       -0.6181031578
 H         -3.1578770797        3.6016602463       -0.7047888551
 H         -2.3748276252        2.0280700874       -0.6323844459
 C         -4.1724544724        2.0648639354       -1.8243769401
 H         -4.1457984763        2.8435487175       -2.5896182101
 H         -5.2152444146        1.9332479923       -1.5332239135
 C         -3.6643650568        0.7793604520       -2.4781411893
 H         -2.5947984284        0.8698433038       -2.6846903033
 H         -4.1723659266        0.6616817316       -3.4392175336
 C         -3.8971116449       -0.5086298357       -1.6791459636
 H         -4.9465981394       -0.5691825983       -1.3822625018
 H         -3.6795087989       -1.3512051370       -2.3424376837
 H         -3.3217181613        2.6162647036        1.5184623692
 H         -4.9184005405        2.8896480481        0.8096219649
 H         -4.6518537948        0.7092606873        2.0491075306
 H         -5.2314001753        0.5396072998        0.3826297719
 O         -2.4412671916       -0.3028037491        1.7886932363
 C         -1.3836272802       -1.1950529759        1.7376375253
 O         -0.7712124640       -1.3269211985        2.8147157829
 O         -1.5573053223       -2.0289933738       -1.7862733659
 C          0.0524578402       -2.8331205912        0.5914496700
 C          1.3763450210       -2.1437987635        0.3829659566
 C          2.4944179844       -2.5038426202        1.1259268054
 C          3.7089079681       -1.8694273485        0.9279133536
 C          3.8258900694       -0.8467845560        0.0035556622
 C          2.7061272626       -0.4601280645       -0.7223426594
 C          1.4980461236       -1.1184635388       -0.5439740661
 H          0.6369649185       -0.8289806475       -1.1301469607
 N          2.8040692526        0.6338460468       -1.6113470540
 S          3.0686843935        2.1218840224       -0.8834256556
 O          2.8912672042        3.1044676509       -1.9271610870
 O          4.3580024837        2.0950473398       -0.2423456696
 C          1.7820950312        2.2954393968        0.3425318387
 C          0.7187424625        3.1355921782        0.0802041106
 C         -0.2971112734        3.2445576829        1.0162207750
 C         -0.2494933140        2.4894568177        2.1777698722
 C          0.8207652391        1.6442669473        2.4246596238
 C          1.8542363240        1.5537218328        1.5060395364
 H          2.7087315521        0.9218779202        1.6833316380
 H          0.8441428361        1.0426698941        3.3192090684
 H         -1.0488355447        2.5534774429        2.8995734805
 H         -1.1229554550        3.9133283156        0.8350218638
 H          0.7131696919        3.6944288199       -0.8420046551
 H          2.0087630213        0.7086164507       -2.2310478320
 H          4.7538079920       -0.3184562551       -0.1421594540
 H          4.5710778212       -2.1663806863        1.5053422141
 H          2.4045042739       -3.2765254378        1.8750560081
 H          0.0508271879       -3.2235944557        1.6219871731
 C         -0.1343255086       -4.0215130367       -0.3429824012
 C          0.6398660213       -4.1955117508       -1.6113388609
 C          0.9153144088       -5.0885004141       -0.4415184089
 H          0.5967569817       -6.1187581705       -0.4902004649
 H          1.8402868420       -4.9365526014        0.0930498779
 H          0.1178196508       -4.5949820301       -2.4671355591
 H          1.3730870616       -3.4455383649       -1.8652083910
 H         -1.1661837749       -4.3567645631       -0.3629847946
