  62
        -98.94593873
 C         -2.1152499819       -1.4922142961        0.0038557765
 C         -1.8361091639       -0.3757549099       -0.8208898576
 C         -2.8966295745        0.6402740642       -0.8960028705
 C         -4.0477657573        0.4455429112       -0.2273622784
 C         -5.1870601170        1.4212616589       -0.1780840610
 C         -5.0503208234        2.3749755003        1.0171999044
 C         -3.6677239641        3.0152632084        1.1422392432
 H         -3.6998508951        3.6912092539        1.9994659420
 H         -2.9344597835        2.2389429409        1.3729807888
 C         -3.2113246768        3.7885522880       -0.1026718104
 H         -2.7828928658        4.7409886097        0.2159745920
 H         -4.0716640694        4.0162464671       -0.7331260080
 C         -2.1445499178        3.0746568246       -0.9350030695
 H         -1.7368326645        3.7939954853       -1.6502317509
 H         -1.3282978171        2.7528079867       -0.2836710724
 C         -2.6277558307        1.8580150044       -1.7344973372
 H         -3.5089438148        2.1264050753       -2.3207513928
 H         -1.8301806195        1.5721017646       -2.4263894842
 H         -5.2518989256        1.8135565069        1.9325456532
 H         -5.8083399693        3.1549771254        0.9243377735
 H         -5.2153694497        1.9874663935       -1.1069816759
 H         -6.1171499172        0.8590963476       -0.0780534927
 O         -4.2892977409       -0.6557883409        0.5294583431
 C         -3.3258087824       -1.6387952251        0.6812677647
 O         -3.6603622737       -2.5783083364        1.4312244072
 H          1.4706709869       -2.4719192641       -0.8983339440
 C          1.3952979303       -1.9801800234        0.0584058783
 C          0.1882878299       -1.9626197148        0.7363700497
 C          0.1245341572       -1.3096911670        1.9652729461
 C          1.2402110410       -0.6951215450        2.4996240136
 C          2.4437719819       -0.7073878571        1.8152974088
 C          2.5146925777       -1.3474370961        0.5859960702
 N          3.7244180672       -1.3466872789       -0.1262119853
 S          4.6258245071        0.0612413607       -0.1588873130
 O          5.3751612592       -0.0027012521       -1.3946766222
 O          5.4171061665        0.1549814206        1.0438257233
 C          3.4532829750        1.4061189566       -0.2094927851
 C          3.5596142192        2.4311963779        0.7088235153
 C          2.6499815268        3.4749564862        0.6576971515
 C          1.6519586643        3.4737514590       -0.3044708913
 C          1.5592731853        2.4373061261       -1.2203776049
 C          2.4679374390        1.3932929713       -1.1761637202
 H          2.4036092271        0.5762563553       -1.8760264599
 H          0.7752561778        2.4223551229       -1.9597722834
 H          0.9401854370        4.2835878926       -0.3412446851
 H          2.7192317898        4.2821866477        1.3691327783
 H          4.3468589627        2.3884191793        1.4441897261
 H          3.6636495501       -1.7651055072       -1.0427328696
 H          3.3249997458       -0.2346121785        2.2175841621
 H          1.1747842929       -0.1973603453        3.4552452936
 H         -0.8195027361       -1.2888098228        2.4933039997
 C         -1.0720066323       -2.5817993808        0.1840644700
 H         -1.4762552675       -3.2692977654        0.9402320718
 C         -0.8747064331       -3.3440656916       -1.1091433462
 C         -0.3144248101       -4.7336606884       -1.0811915168
 C         -1.7616928613       -4.5147651254       -1.4027996670
 H         -2.0941496560       -4.6679856491       -2.4186212113
 H         -2.4997951449       -4.7776835587       -0.6590491051
 H         -0.0666638206       -5.1525690893       -0.1176078168
 H          0.3454586704       -5.0426144074       -1.8779954542
 H         -0.6112826863       -2.7014223678       -1.9412839976
 O         -0.7639242433       -0.2321596978       -1.4628000355
