  62
        -98.93881462
 C         -1.8987868105       -0.9195745294       -0.2454361610
 C         -3.0144929404       -1.2237183100        0.5720058588
 C         -4.3196499404       -0.7030006296        0.1309354492
 C         -4.3807811705        0.0318976712       -0.9930676203
 C         -5.5910664105        0.6941821317       -1.5914195697
 C         -5.7148344704        2.1483684813       -1.1058979087
 C         -6.4787705304        2.3265680903        0.2055571415
 H         -6.3820332804        3.3747331301        0.4979028423
 H         -7.5392461504        2.1316351405        0.0323773314
 C         -6.0022723704        1.4468210594        1.3642275808
 H         -4.9110296604        1.4324506494        1.3898828708
 H         -6.3406834404        1.9068271688        2.2947088812
 C         -6.5433405704        0.0110312195        1.2939996398
 H         -7.3383110004       -0.0344428799        0.5498950997
 H         -7.0004785904       -0.2499959612        2.2507482696
 C         -5.4941490504       -1.0698182803        0.9967569089
 H         -5.0484873404       -1.4111235510        1.9363822787
 H         -5.9933085005       -1.9391044099        0.5555460583
 H         -6.2238659005        2.7324279419       -1.8753929882
 H         -4.7052580704        2.5546965012       -1.0024551984
 H         -6.4903479805        0.1275496615       -1.3690562302
 H         -5.4380160205        0.7010266225       -2.6726730097
 O         -3.2798990005        0.3192586518       -1.7397065401
 C         -2.0196874505       -0.1398286285       -1.3951919804
 O         -1.1212420605        0.2051880721       -2.1866104902
 O         -2.9236274504       -1.9041627908        1.6287460583
 C         -0.5391978205       -1.4506300497        0.1778222386
 C          0.3225103896       -0.2977180500        0.6276598394
 C          0.2049467396        0.1786040290        1.9301858898
 C          0.9692919496        1.2452832087        2.3664712606
 C          1.8628618196        1.8653229693        1.5100142410
 C          1.9774914596        1.4043394903        0.2059272107
 C          1.2215489096        0.3232260006       -0.2260272601
 H          1.3132518395       -0.0150809386       -1.2459879704
 N          2.8919792596        2.0306244409       -0.6710668889
 S          4.5084341296        1.8332723906       -0.2770207190
 O          4.7879551696        2.5662901097        0.9313241915
 O          5.2532228595        2.2250616715       -1.4518470887
 C          4.6814356596        0.0823442704        0.0140977697
 C          4.9711617795       -0.7418192788       -1.0548929810
 C          5.0254300595       -2.1109155890       -0.8503432520
 C          4.7758602295       -2.6303049799        0.4107218176
 C          4.4825068196       -1.7891238907        1.4727990383
 C          4.4334511396       -0.4183940805        1.2764129193
 H          4.2137811296        0.2679695489        2.0774955098
 H          4.2883573596       -2.1953260214        2.4524777880
 H          4.8099050195       -3.6971372400        0.5661478468
 H          5.2574766595       -2.7675590783       -1.6736470125
 H          5.1610747095       -0.2965624681       -2.0185343706
 H          2.7461009695        1.7672398416       -1.6358128991
 H          2.4771961096        2.6905664390        1.8323738416
 H          0.8689792696        1.5991986179        3.3813879208
 H         -0.5008948204       -0.2971100615        2.5966306394
 H         -0.7388660404       -2.0840983703        1.0523281881
 C          0.1079345395       -2.2957981689       -0.9001669321
 C          1.3152703495       -3.1142525992       -0.5553644727
 C          0.0045988295       -3.7882544789       -0.8258380132
 H         -0.1123942805       -4.3414364883       -1.7456649536
 H         -0.5358549905       -4.2108639596        0.0082702265
 H          2.1037518695       -3.2042386286       -1.2864523628
 H          1.6665731095       -3.0727897899        0.4643042573
 H          0.0636150595       -1.8464161882       -1.8846456717
