  62
        -98.94290397
 C          1.9914623098        1.0163925731        0.4139217278
 C          2.6158916924       -0.0321749362        1.1393692981
 C          4.0437227940       -0.2514440346        0.8777933658
 C          4.6784904206        0.5466422944        0.0004205720
 C          6.1174585538        0.4090413419       -0.4024104381
 C          6.2650926910       -0.4977068231       -1.6321785079
 C          5.5146467856       -1.8243902791       -1.5147192161
 H          4.4403550155       -1.6266429212       -1.4914779056
 H          5.7161886991       -2.3941011491       -2.4244507730
 C          5.9001374918       -2.6651683558       -0.2895211177
 H          6.0321579905       -3.7026241657       -0.6038620636
 H          6.8560890737       -2.3235093481        0.1090111147
 C          4.8578120810       -2.6693613825        0.8304800416
 H          3.8769879515       -2.9212778862        0.4185568426
 H          5.1249671658       -3.4564077047        1.5409209668
 C          4.7255082587       -1.3633405135        1.6240788530
 H          4.0982085291       -1.5673155769        2.4969848495
 H          5.7093251889       -1.0451548252        1.9754315178
 H          7.3271698505       -0.6915202538       -1.7926763159
 H          5.8808569885        0.0363091212       -2.5042029628
 H          6.5029530802        1.4007716486       -0.6446650931
 H          6.6853752139        0.0028805162        0.4323528391
 O          4.0565049478        1.5526529229       -0.6600651365
 C          2.7029971212        1.8094174726       -0.4874295517
 O          2.2885277388        2.7550868432       -1.1843903868
 H         -1.1829126027       -0.8518522260        0.9388694034
 C         -1.1596382782       -0.4704047603       -0.0711528388
 C         -0.3383536261        0.6008510418       -0.3932539248
 C         -0.3160393922        1.0552527064       -1.7087056879
 C         -1.0958074327        0.4447987710       -2.6732012371
 C         -1.9254838731       -0.6135617522       -2.3449235720
 C         -1.9561863243       -1.0749813883       -1.0351130078
 N         -2.7899833498       -2.1490893190       -0.6694159624
 S         -3.8799709378       -1.9251266229        0.5818157250
 O         -3.1770245785       -1.7561038808        1.8268143718
 O         -4.7793832588       -3.0536534087        0.4960198895
 C         -4.7405651165       -0.4252285340        0.1447058296
 C         -4.1942762721        0.7915775606        0.5008113880
 C         -4.8228199391        1.9546794223        0.0855300426
 C         -5.9809948474        1.8816727301       -0.6729446099
 C         -6.5202117996        0.6516002716       -1.0185387086
 C         -5.8922877444       -0.5147718137       -0.6126745000
 H         -6.2784139103       -1.4917840506       -0.8547019575
 H         -7.4233966060        0.5985968219       -1.6048479806
 H         -6.4663208595        2.7896110905       -0.9945042278
 H         -4.4011353927        2.9098507557        0.3542307546
 H         -3.2943110501        0.8105701024        1.0928850902
 H         -3.2579658097       -2.5841573796       -1.4522832845
 H         -2.5377288568       -1.0858716010       -3.0983260970
 H         -1.0632910908        0.8019869902       -3.6912767255
 H          0.3341763914        1.8757586901       -1.9694715022
 C          0.5114326038        1.2402420355        0.6792391335
 H          0.3100469403        0.7093948584        1.6202022296
 C          0.1477420550        2.6997321542        0.8682150228
 C         -1.0378815301        3.0521054790        1.7133395675
 C          0.3478745671        3.3326663003        2.2109180731
 H          0.6885066124        4.3562352102        2.2517608937
 H          0.7410656326        2.7107666072        3.0023931608
 H         -1.6536864105        3.8863477772        1.4151178689
 H         -1.5819074634        2.2432285275        2.1786162943
 H          0.3492661899        3.3124184474       -0.0002090081
 O          2.0049572782       -0.7487934749        1.9783234460
