  62
        -98.94336408
 C          1.9434249259        0.8523172438        0.0469542422
 C          2.2354967955       -0.1227168018        1.0285169238
 C          2.5987652115       -1.4533621668        0.5261393464
 C          2.5910997231       -1.6789149667       -0.8005062372
 C          2.9911745444       -2.9704489326       -1.4522199401
 C          4.4889483715       -2.9819281389       -1.7899409975
 C          5.3879113968       -2.5605214700       -0.6275637438
 H          6.4213971870       -2.6339005047       -0.9726025655
 H          5.1995172171       -1.5100034756       -0.3948740405
 C          5.2132380181       -3.3993859033        0.6460065247
 H          4.7131069760       -4.3381821989        0.4057955843
 H          6.2006363678       -3.6483623519        1.0402279947
 C          4.4509709654       -2.6942399056        1.7693789484
 H          4.8928974656       -1.7115081049        1.9521119315
 H          4.5698114896       -3.2819596120        2.6835065460
 C          2.9455767682       -2.5078451420        1.5393827984
 H          2.4905296056       -3.4636191893        1.2702792718
 H          2.5018295087       -2.1728626607        2.4819674880
 H          4.7606714307       -3.9871485896       -2.1169498866
 H          4.6600652167       -2.2947327451       -2.6215983776
 H          2.7496771919       -3.7962537689       -0.7857582297
 H          2.4168304644       -3.0807941692       -2.3735276972
 O          2.2650149205       -0.7282694990       -1.7129616131
 C          1.9349764092        0.5588225725       -1.3162644334
 O          1.6645729210        1.3325409177       -2.2548128178
 H         -0.5571357504        0.6402563032        0.2623471231
 C         -0.7957649377        1.6525914867       -0.0321138059
 C          0.1910342517        2.6293506603        0.0037349325
 C         -0.1448162285        3.9245760494       -0.3711725082
 C         -1.4332223102        4.2241628422       -0.7785414862
 C         -2.4101409212        3.2475210783       -0.8175636273
 C         -2.0834084440        1.9462006623       -0.4488796417
 N         -3.0429849317        0.9243521401       -0.5266958910
 S         -2.8791435135       -0.4712391580        0.3978131507
 O         -2.6547733058       -0.1335655918        1.7865091558
 O         -1.9023375516       -1.3336068654       -0.2207863882
 C         -4.5110119005       -1.1611321776        0.1957232696
 C         -5.4649997346       -0.9410125861        1.1713633909
 C         -6.7405588147       -1.4522537388        0.9899050532
 C         -7.0399532765       -2.1681874275       -0.1593727277
 C         -6.0718434721       -2.3820583103       -1.1294890266
 C         -4.7942523380       -1.8745640799       -0.9536145211
 H         -4.0066779375       -2.0216251395       -1.6744634024
 H         -6.3069305674       -2.9416310608       -2.0204537436
 H         -8.0331499389       -2.5647152425       -0.2988387791
 H         -7.4939241632       -1.2905721766        1.7438596153
 H         -5.1827526749       -0.3860651487        2.0515537070
 H         -3.9941885301        1.2641012810       -0.5477647220
 H         -3.4130244656        3.4815776016       -1.1398862831
 H         -1.6800392120        5.2344325516       -1.0676790557
 H          0.6038951785        4.6993424395       -0.3454719034
 C          1.5706761284        2.2536522923        0.4882668456
 H          1.5418042245        2.2154324131        1.5888755673
 C          2.6417354556        3.2386165951        0.0625937409
 C          2.9734561666        4.4239772466        0.9177063365
 C          3.9307630974        3.2752589127        0.8260274637
 H          4.8516468989        3.4087290719        0.2785846150
 H          4.0191888526        2.6127145724        1.6750106248
 H          3.2410453276        5.3505527763        0.4324982810
 H          2.4215605036        4.5475428005        1.8373314053
 H          2.6941983561        3.3495748446       -1.0148344280
 O          2.1989505673        0.1118625788        2.2687572625
