  62
        -98.93875208
 C         -1.8089701897       -0.1089097068        0.0589557997
 C         -2.7812874621       -0.9829361528        0.5959302585
 C         -4.1391185443       -0.4345261330        0.7549588352
 C         -4.3723243397        0.8409629390        0.3995111826
 C         -5.6866821660        1.5709039854        0.4282417194
 C         -6.3891201136        1.4774996537       -0.9369970726
 C         -7.2695026120        0.2426366051       -1.1258790330
 H         -8.1620488713        0.3402920744       -0.5042316034
 H         -7.5962349277        0.2333955777       -2.1683167599
 C         -6.5974755717       -1.0960949813       -0.8095736528
 H         -5.5858077335       -1.1059195495       -1.2193495965
 H         -7.1597837313       -1.8809466407       -1.3192833864
 C         -6.5567099753       -1.4108050764        0.6931986204
 H         -6.9552484120       -2.4131571743        0.8629547597
 H         -7.2184543401       -0.7224571723        1.2186519824
 C         -5.1608664445       -1.3753931714        1.3332905133
 H         -5.2644651708       -1.1635967164        2.4027337102
 H         -4.6997335009       -2.3648961079        1.2548693963
 H         -7.0150467526        2.3622239187       -1.0703957078
 H         -5.6186884197        1.5032684296       -1.7120564658
 H         -6.3213665898        1.1922629400        1.2239016573
 H         -5.4561888263        2.6191369242        0.6295067045
 O         -3.4026764473        1.6528666591       -0.1060026749
 C         -2.1050276214        1.2075590270       -0.2927302515
 O         -1.3298885604        2.0605027194       -0.7649959127
 O         -2.5265818206       -2.1722273187        0.9285510143
 C         -0.3941155794       -0.6191354885       -0.1455909940
 C          0.5847319519        0.2342470423        0.6207211036
 C          0.3178803504        0.5238869620        1.9574824278
 C          1.1706324852        1.3220210225        2.6929602887
 C          2.3201331006        1.8358643505        2.1175922712
 C          2.6043523065        1.5410754502        0.7908635636
 C          1.7437466531        0.7378518744        0.0523504702
 H          1.9842489243        0.5403436816       -0.9786264642
 N          3.7636943953        2.0431042240        0.1814214084
 S          4.6380261118        1.0712095858       -0.8557711729
 O          5.9773378112        1.6194624548       -0.8221334417
 O          4.0156751685        1.0207270547       -2.1542866974
 C          4.6221322745       -0.5481265189       -0.1045525653
 C          4.2083604062       -1.6379341372       -0.8413811917
 C          4.1940713071       -2.8878994401       -0.2427114953
 C          4.5888772006       -3.0246714703        1.0786001080
 C          5.0076861740       -1.9203019566        1.8050921745
 C          5.0277381591       -0.6696834245        1.2102049817
 H          5.3576191804        0.2041213860        1.7478104879
 H          5.3164803264       -2.0304348977        2.8320821825
 H          4.5712749233       -3.9974522547        1.5442022002
 H          3.8726516423       -3.7479114366       -0.8085895430
 H          3.9026337643       -1.4864376658       -1.8636457683
 H          4.3631838642        2.5846060442        0.7862298363
 H          2.9839708139        2.4684666734        2.6868827882
 H          0.9421812057        1.5460745225        3.7239912296
 H         -0.5802729291        0.1233035781        2.4074297126
 H         -0.3827623034       -1.6303531815        0.2879629786
 C         -0.0881951762       -0.7204607993       -1.6248013945
 C          0.8611899724       -1.7616427347       -2.1335450359
 C         -0.6084761333       -1.8979780735       -2.3918020072
 H         -0.9761437031       -1.7391301144       -3.3945456254
 H         -1.1583351607       -2.6447364503       -1.8377523006
 H          1.5059326846       -1.5044207534       -2.9608495533
 H          1.3101444918       -2.4219206095       -1.4073474429
 H         -0.1034340172        0.2440659891       -2.1211190441
