  62
        -98.93684202
 C          1.9393497289        0.8123273231        0.5975893206
 C          2.2366965476        0.1597628388       -0.6211524163
 C          2.6003850390       -1.2640119192       -0.5250924578
 C          2.5879783063       -1.8693012735        0.6746395499
 C          2.8704842871       -3.3155972119        0.9977419025
 C          4.0662759392       -3.9778320732        0.2986522992
 C          5.2464946355       -3.0409289605        0.0024038452
 H          5.1130224805       -2.0944010572        0.5289659473
 H          6.1639587586       -3.4971230633        0.3787087187
 C          5.4345462515       -2.7719031638       -1.4925683492
 H          5.3105268871       -3.7115798846       -2.0349723472
 H          6.4580880685       -2.4290113170       -1.6612306490
 C          4.5010705184       -1.7211936240       -2.0927403302
 H          4.7722494086       -0.7291199138       -1.7219856391
 H          4.6550404062       -1.7124112861       -3.1743209793
 C          3.0035359726       -1.9268111171       -1.8109907171
 H          2.4388517805       -1.4196884147       -2.5981710384
 H          2.7398402881       -2.9816130557       -1.8197764070
 H          3.7348940085       -4.4362124504       -0.6319702677
 H          4.3994065822       -4.7893753620        0.9477479335
 H          3.0190792611       -3.3398759120        2.0801147200
 H          1.9638780248       -3.8903072237        0.7857164483
 O          2.2624148261       -1.2074210741        1.8226838863
 C          1.9316058625        0.1359131612        1.8145045285
 O          1.6606733183        0.6076708295        2.9397839364
 H         -0.5777407577        0.6675089658        0.4125543113
 C         -0.6950429385        1.5432147600       -0.2107052898
 C          0.3185706330        2.4916678883       -0.2587299756
 C          0.1410396640        3.6125251441       -1.0600944680
 C         -1.0202910892        3.7685536514       -1.7969328367
 C         -2.0258208868        2.8216862023       -1.7465991986
 C         -1.8558624437        1.6931276821       -0.9508015947
 N         -2.8389673498        0.6905981276       -0.9131948251
 S         -2.9831508450       -0.2824082352        0.4542474087
 O         -3.0026336014        0.5330313048        1.6487912146
 O         -1.9844382711       -1.3217350617        0.3984969718
 C         -4.5986875476       -0.9817941610        0.1683682353
 C         -4.7130136931       -2.0848523465       -0.6563980991
 C         -5.9722519821       -2.6071604930       -0.9060951057
 C         -7.0901360571       -2.0207588921       -0.3313618704
 C         -6.9598485817       -0.9155840435        0.4961889792
 C         -5.7034400971       -0.3878499623        0.7493478847
 H         -5.5517309888        0.4633529340        1.3934476055
 H         -7.8299422226       -0.4639994886        0.9446702031
 H         -8.0686808040       -2.4296619698       -0.5272641801
 H         -6.0765661841       -3.4682289913       -1.5462927687
 H         -3.8147078213       -2.5106451582       -1.0724545207
 H         -3.7368281373        0.9971511622       -1.2614268050
 H         -2.9296975164        2.9448785900       -2.3231862316
 H         -1.1451621685        4.6434762908       -2.4166955922
 H          0.9130671937        4.3628687042       -1.1088613835
 C          1.5468307075        2.2768414508        0.5940472402
 H          1.2787883067        2.5212255674        1.6338464083
 C          2.7246192408        3.1349569968        0.1773283310
 C          2.9017855373        4.5102558314        0.7450277133
 C          3.8110777479        3.3996239566        1.1745308958
 H          4.8352689716        3.4064130783        0.8331115064
 H          3.6832403719        2.9844027658        2.1641673101
 H          2.1632676916        4.8587403671        1.4513155921
 H          3.3065755946        5.2827671740        0.1087335503
 H          3.0195047834        2.9598830539       -0.8509448665
 O          2.1960942149        0.7345883162       -1.7404357189
