  62
        -98.94279101
 C         -1.4502380899       -1.1750457505        0.0518706860
 C         -2.7029093964       -1.2709568768        0.7137823465
 C         -3.4508714559       -0.0197965242        0.8754756996
 C         -2.9033812717        1.1391868523        0.4681614680
 C         -3.5201170720        2.5049143156        0.6026227579
 C         -4.5012716455        2.8596112102       -0.5230239882
 C         -5.8412381564        2.1244363110       -0.4730031117
 H         -6.2800971185        2.2373255790        0.5188863634
 H         -6.5068061904        2.6218789372       -1.1813582534
 C         -5.7606371523        0.6348243885       -0.8354831433
 H         -4.8184463884        0.4360552160       -1.3515960616
 H         -6.5644914141        0.3851645383       -1.5318126631
 C         -5.8828040801       -0.3154116002        0.3560582297
 H         -5.7774740220       -1.3401294503       -0.0101367427
 H         -6.8757871409       -0.2192990444        0.8008421885
 C         -4.8323525655       -0.0924685172        1.4521201676
 H         -5.0606470735        0.8141639251        2.0121800357
 H         -4.8637964854       -0.9439883206        2.1363307173
 H         -4.0167032186        2.6678563240       -1.4831243650
 H         -4.6983674384        3.9321824571       -0.4583332462
 H         -2.6969936742        3.2217035848        0.5794653035
 H         -4.0250155776        2.5863322470        1.5655629674
 O         -1.6794997325        1.2002654658       -0.1139949441
 C         -0.9330372017        0.0542021371       -0.3674088693
 O          0.1367490056        0.2853347109       -0.9573420989
 O         -3.1729722420       -2.3539682004        1.1535223631
 C         -0.6503233014       -2.4593559385       -0.0997938576
 C          0.7264203295       -2.2313144344        0.4650011275
 C          0.9320033195       -2.3175144294        1.8380234498
 C          2.1624279618       -2.0080315389        2.3881809589
 C          3.2017782206       -1.5759852017        1.5828203235
 C          2.9986467549       -1.4709698416        0.2130368344
 C          1.7792949575       -1.8309935338       -0.3428835052
 H          1.6335704814       -1.7495593275       -1.4084094471
 N          4.0339540540       -0.9813695270       -0.6106622651
 S          4.6363864577        0.5408231383       -0.2508256988
 O          5.4006406886        0.9273719532       -1.4162699079
 O          5.3720221675        0.4662159506        0.9880383603
 C          3.2308226277        1.6203459133       -0.0550635671
 C          2.6156365337        1.7156026598        1.1762431008
 C          1.5014498385        2.5280669298        1.3045822296
 C          1.0275757896        3.2300884336        0.2084702796
 C          1.6588504720        3.1260193552       -1.0199816614
 C          2.7675299867        2.3087031535       -1.1570208444
 H          3.2851965468        2.1980460413       -2.0965455512
 H          1.2812189594        3.6671026178       -1.8729024285
 H          0.1545951629        3.8558922474        0.3103080525
 H          1.0005591763        2.6027070411        2.2572788599
 H          3.0138685318        1.1592911434        2.0091056240
 H          3.7909096844       -1.0083884055       -1.5913870647
 H          4.1580702621       -1.2976923275        1.9957977844
 H          2.3115204602       -2.0902290023        3.4543190634
 H          0.1102618040       -2.6191305337        2.4727402022
 H         -1.1744273924       -3.1834696423        0.5440324674
 C         -0.6330636703       -3.0565942533       -1.4984319626
 C         -1.8881396783       -3.0895977692       -2.3174521464
 C         -0.7328511817       -2.2404031843       -2.7505766764
 H         -0.1596120317       -2.5588150233       -3.6095645366
 H         -0.8140915057       -1.1693882019       -2.6559754257
 H         -2.1168866824       -3.9808943590       -2.8819786623
 H         -2.7572592235       -2.5959816236       -1.9071890902
 H         -0.0008313827       -3.9384881884       -1.5469542188
