  62
        -98.94416312
 C          2.2481870045        0.8738211363        0.4157657776
 C          2.4339746756        0.0160429810       -0.6957314890
 C          3.2839547771       -1.1574620614       -0.4560539128
 C          3.7913298285       -1.3788032383        0.7702010155
 C          4.6536660928       -2.5436530817        1.1750745014
 C          6.1443068645       -2.3559351163        0.8609989256
 C          6.5144678489       -2.4512934160       -0.6196421595
 H          7.6028585106       -2.5190164513       -0.6731996002
 H          6.1101423112       -3.3748799288       -1.0350427332
 C          6.0519471701       -1.2572863671       -1.4663829797
 H          6.8705357088       -0.9295551027       -2.1110047937
 H          5.8063265449       -0.4188543617       -0.8104871538
 C          4.8526482666       -1.5468248252       -2.3690702280
 H          4.5885916372       -0.6253895440       -2.8940159029
 H          5.1287205986       -2.2933751532       -3.1169331723
 C          3.6057825253       -2.0405581636       -1.6235992415
 H          2.7568242955       -2.0024554496       -2.3105544024
 H          3.7460713550       -3.0704976166       -1.2961032996
 H          6.6904316283       -3.1328915507        1.4009361782
 H          6.4652427410       -1.3891587567        1.2557602590
 H          4.5408438259       -2.6529917162        2.2560041004
 H          4.2910596650       -3.4528165778        0.6944694105
 O          3.5498600247       -0.5524654032        1.8241554806
 C          2.7907794552        0.5971998707        1.6694600309
 O          2.6623433781        1.2726628028        2.7122844648
 H         -0.0879516948        0.1138937933        1.1619434073
 C         -0.6256524611        0.6974933514        0.4234105472
 C          0.0053425841        1.7855634623       -0.1667869200
 C         -0.7048154771        2.5348817363       -1.0958452316
 C         -2.0009418867        2.1867355471       -1.4348770211
 C         -2.6159955627        1.0900455500       -0.8604104807
 C         -1.9199537161        0.3402580482        0.0788229090
 N         -2.5326979706       -0.7849030109        0.6608234143
 S         -4.0354587863       -0.5713798883        1.3811035304
 O         -4.1884144006        0.7700770068        1.8958273366
 O         -4.1495671756       -1.6454727226        2.3438942132
 C         -5.1916177426       -0.8521328445        0.0566620248
 C         -6.1500750615        0.0995937319       -0.2317820078
 C         -7.0470369322       -0.1435322558       -1.2604660290
 C         -6.9700687385       -1.3274845363       -1.9777980679
 C         -6.0029430583       -2.2741611528       -1.6736138242
 C         -5.1043298219       -2.0383417586       -0.6454477827
 H         -4.3397266918       -2.7480053841       -0.3764758451
 H         -5.9456393530       -3.1933520926       -2.2341174355
 H         -7.6676502285       -1.5138791918       -2.7790042096
 H         -7.7996976986        0.5908553379       -1.4981990826
 H         -6.1661631707        1.0082421557        0.3485279157
 H         -1.9213219409       -1.3038579915        1.2745824945
 H         -3.6215312030        0.8104936107       -1.1289912474
 H         -2.5381758452        2.7759210734       -2.1621680279
 H         -0.2420510574        3.3917644739       -1.5571093834
 C          1.4109354356        2.1298370550        0.2660727923
 H          1.3525548023        2.5790902609        1.2692128529
 C          2.1035131807        3.1044713565       -0.6650457342
 C          1.9518952454        4.5820545842       -0.4686194503
 C          3.2508177510        3.9116726966       -0.1390668795
 H          4.1005114094        4.0828987910       -0.7828069470
 H          3.5114758734        3.7805919246        0.9015782889
 H          1.3345239496        4.9178401030        0.3510233054
 H          1.9130087000        5.2171324619       -1.3408280812
 H          2.1805087690        2.7253810367       -1.6775667635
 O          1.9161471302        0.2142713221       -1.8243860954
