  62
        -98.93929307
 C         -1.7306649593       -1.3358966885       -0.0471378060
 C         -2.8784411531       -0.9103514265        0.6559199420
 C         -3.6100241797        0.2478329977        0.1038899190
 C         -3.1404926511        0.8369065283       -1.0118886723
 C         -3.6808391944        2.0506323222       -1.7204295621
 C         -3.3414342795        3.3624738912       -0.9936647963
 C         -3.5285983653        3.3269757488        0.5211091035
 H         -2.9170993317        2.5255180601        0.9407155365
 H         -3.1473877117        4.2686823315        0.9254693931
 C         -4.9708081331        3.1643884529        0.9955165906
 H         -4.9639548601        3.2393187971        2.0861176369
 H         -5.5694222571        3.9929797619        0.6106026037
 C         -5.6563149377        1.8508541992        0.6135778651
 H         -5.9698610054        1.8608109377       -0.4268132609
 H         -6.5692013469        1.7751969580        1.2116153786
 C         -4.8401389880        0.5957927168        0.9072015650
 H         -5.5014756788       -0.2754403931        0.8241493894
 H         -4.5206927410        0.6136709493        1.9557162015
 H         -3.9523431451        4.1608168749       -1.4181684140
 H         -2.2931709952        3.5994248100       -1.1928135411
 H         -3.2153328729        2.0710281797       -2.7082087365
 H         -4.7529593328        1.9529059317       -1.8624406472
 O         -2.0176353371        0.3988383799       -1.6503756350
 C         -1.2927537487       -0.6940675336       -1.2052928059
 O         -0.3052556410       -0.9787972067       -1.9049259016
 O         -3.2787732555       -1.4651104602        1.7165475429
 C         -0.9356367757       -2.5177300294        0.4736947095
 C          0.5042635282       -2.1316082821        0.7108564421
 C          1.5709015693       -2.9738337051        0.4229948581
 C          2.8730333312       -2.5670833333        0.6597149054
 C          3.1429314181       -1.3141858870        1.1776088689
 C          2.0836216340       -0.4630448598        1.4662558371
 C          0.7804124172       -0.8798426090        1.2461914049
 H         -0.0399371252       -0.2118088037        1.4792190832
 N          2.3459224376        0.8258075803        1.9629623714
 S          3.5476748943        1.7098431404        1.1997296256
 O          4.8265938562        1.3684033562        1.7724083638
 O          3.1474100692        3.0926468970        1.3447690281
 C          3.5086654199        1.2172277618       -0.5146222108
 C          2.3194580428        1.3327526464       -1.2060875001
 C          2.2688664362        0.9264073057       -2.5288055911
 C          3.4069092032        0.4180185208       -3.1358449318
 C          4.5970682022        0.3181358910       -2.4322298116
 C          4.6506785725        0.7174878161       -1.1067168145
 H          5.5511808531        0.6474695351       -0.5183348346
 H          5.4796601731       -0.0766107288       -2.9093212964
 H          3.3606616794        0.0952984798       -4.1639256756
 H          1.3358136430        0.9820043086       -3.0656189707
 H          1.4455584871        1.7270198867       -0.7111094910
 H          1.5176731316        1.3877592623        2.0943315297
 H          4.1507560347       -0.9801137122        1.3640677889
 H          3.6903004825       -3.2335465437        0.4311838843
 H          1.3828739936       -3.9502677848        0.0081419233
 H         -1.3880638354       -2.7721008058        1.4443575410
 C         -1.0912581648       -3.7015850996       -0.4593125135
 C         -1.0778851085       -5.1011659694        0.0767130005
 C         -2.3602201996       -4.4968990643       -0.4083612400
 H         -2.7839836714       -4.8535773863       -1.3351292988
 H         -3.0984780086       -4.2031653360        0.3237460508
 H         -0.6224345629       -5.8775071840       -0.5194638345
 H         -0.9510169660       -5.2292854644        1.1411230656
 H         -0.6531706231       -3.5200688135       -1.4343926406
