  62
        -98.94091304
 C         -2.3870497299       -1.2607311324        0.1390900109
 C         -2.2676327058        0.1483329624        0.0327475814
 C         -3.3822699900        0.9260893088        0.5964154601
 C         -4.4055796566        0.3013153061        1.2040192640
 C         -5.6030008209        0.9596464900        1.8335718989
 C         -6.7209135588        1.3007465713        0.8386672648
 C         -6.4254974838        2.4750752801       -0.0953345452
 H         -7.3658391313        2.7414695408       -0.5819637886
 H         -6.1086138941        3.3360809018        0.4940383066
 C         -5.3782488574        2.1770879290       -1.1774720647
 H         -5.2533044714        1.0962484144       -1.2760026336
 H         -5.7349445735        2.5465585763       -2.1415457171
 C         -4.0102604876        2.8126496609       -0.9277734457
 H         -3.3377797002        2.5104195954       -1.7350901282
 H         -4.1001807325        3.9008509412       -0.9575483551
 C         -3.3613451434        2.4126099655        0.4039682751
 H         -2.3156944880        2.7313277751        0.3874197061
 H         -3.8646014419        2.9111627416        1.2321794920
 H         -6.9443985515        0.4108780736        0.2456267420
 H         -7.6122187857        1.5438898387        1.4215041943
 H         -5.9975127361        0.2516493149        2.5655813758
 H         -5.2913226995        1.8636684063        2.3574825091
 O         -4.4566820356       -1.0506748111        1.3344561121
 C         -3.4647759004       -1.8570339614        0.8024529362
 O         -3.6495270174       -3.0762070904        0.9892570450
 O         -1.3007579970        0.7473255396       -0.5055606806
 C         -1.3340693533       -2.2152496258       -0.4017219406
 C          0.0338085019       -1.7821533855        0.0614175289
 C          0.4302946914       -2.0612818457        1.3656184354
 C          1.6614911801       -1.6413982830        1.8328255131
 C          2.5172758937       -0.9260133232        1.0133886757
 C          2.1205453486       -0.6233040583       -0.2818590957
 C          0.8937323580       -1.0689029574       -0.7571239239
 H          0.5885291549       -0.8169965870       -1.7607774343
 N          2.9744578394        0.1094323840       -1.1213155872
 S          3.8237457372        1.4151517117       -0.5014993606
 O          3.1323944057        2.0538572689        0.5938360395
 O          4.1190001407        2.2460799525       -1.6489333107
 C          5.3410145135        0.6821570628        0.0796700364
 C          6.0508340535       -0.1247034227       -0.7880180143
 C          7.2374134311       -0.6937664456       -0.3542836666
 C          7.6944386503       -0.4453824960        0.9314367433
 C          6.9730528559        0.3703776427        1.7893110845
 C          5.7846239876        0.9417928100        1.3614975474
 H          5.1878314292        1.5780916709        1.9959058521
 H          7.3298095688        0.5635107414        2.7883034059
 H          8.6181310131       -0.8898381883        1.2669452056
 H          7.8012107424       -1.3286107593       -1.0187134705
 H          5.6637195624       -0.2906110259       -1.7793393275
 H          2.5604872458        0.3419289671       -2.0125522506
 H          3.4718874884       -0.5820193496        1.3763612350
 H          1.9579418164       -1.8684137063        2.8457062555
 H         -0.2458393204       -2.6039638352        2.0123477791
 H         -1.5607290092       -3.1827134042        0.0736868176
 C         -1.4060655248       -2.4450826347       -1.9046052603
 C         -2.7343946137       -2.5970654435       -2.5824558679
 C         -1.8759518160       -1.4050239480       -2.8746752008
 H         -1.3887638024       -1.3499496235       -3.8376978457
 H         -2.1753556066       -0.4450257699       -2.4850324739
 H         -2.8433589612       -3.3552916915       -3.3430144344
 H         -3.6177646859       -2.4551143689       -1.9765204275
 H         -0.6123109338       -3.1025515699       -2.2464623373
