  62
        -98.94343434
 C          1.9545808532        0.8586613526        0.0435733039
 C          2.2442802495       -0.1068373946        1.0350669347
 C          2.5279670292       -1.4630439444        0.5502995499
 C          2.4558981173       -1.7169170673       -0.7692836652
 C          2.7596277981       -3.0423764365       -1.4047273538
 C          4.2387816497       -3.1437619547       -1.8033799709
 C          5.2067077797       -2.7456468458       -0.6892550719
 H          6.2195937346       -2.8832981974       -1.0734530529
 H          5.0844619431       -1.6813491330       -0.4758075993
 C          5.0398176560       -3.5444150381        0.6108677942
 H          4.4796361283       -4.4591868183        0.4144965290
 H          6.0277034466       -3.8389254474        0.9709408660
 C          4.3643995376       -2.7728985382        1.7461524320
 H          4.8649927331       -1.8113473550        1.8850499538
 H          4.4909412064       -3.3445222331        2.6694002862
 C          2.8624183757       -2.5113495293        1.5741210260
 H          2.3465086325       -3.4472302816        1.3479765428
 H          2.4774050492       -2.1319296671        2.5256629733
 H          4.4418687633       -4.1696614626       -2.1156723033
 H          4.4114073529       -2.4863648470       -2.6584720336
 H          2.5022550399       -3.8383866280       -0.7085446685
 H          2.1408605376       -3.1418802054       -2.2981393563
 O          2.1435312318       -0.7708482072       -1.6909596233
 C          1.8831249914        0.5368944037       -1.3116074211
 O          1.6115495333        1.3019671669       -2.2569823608
 H         -0.5239543522        0.7035311347        0.3232947283
 C         -0.7548040695        1.7176961360        0.0299204778
 C          0.2488843332        2.6776803645        0.0304711181
 C         -0.0776398612        3.9770743070       -0.3379316859
 C         -1.3735767809        4.2960254996       -0.7052234759
 C         -2.3658242424        3.3341867751       -0.7158665055
 C         -2.0481956844        2.0283859589       -0.3545814116
 N         -3.0233152670        1.0199543651       -0.4123454314
 S         -2.8244224620       -0.4273702926        0.4183336789
 O         -2.5875834560       -0.1786810280        1.8241230031
 O         -1.8440291394       -1.2337499675       -0.2663822145
 C         -4.4474440836       -1.1287283158        0.1885600954
 C         -5.3749115115       -1.0565492301        1.2104949942
 C         -6.6412479640       -1.5818872037        1.0051026831
 C         -6.9576144055       -2.1646812781       -0.2126991191
 C         -6.0159057575       -2.2303958773       -1.2291813585
 C         -4.7479478444       -1.7080556906       -1.0299209327
 H         -3.9801015711       -1.7430731103       -1.7854284227
 H         -6.2641190250       -2.6862528487       -2.1740578367
 H         -7.9433773350       -2.5727715322       -0.3703780424
 H         -7.3741111458       -1.5348055585        1.7942849465
 H         -5.0800692919       -0.6013751285        2.1422715826
 H         -3.9708869429        1.3669443367       -0.3676088759
 H         -3.3735821295        3.5827500467       -1.0106449493
 H         -1.6135471913        5.3097216010       -0.9880874316
 H          0.6840006888        4.7396202113       -0.3388607613
 C          1.6382646676        2.2791013560        0.4678686391
 H          1.6550129118        2.2660711502        1.5692880355
 C          2.7121063952        3.2289273727       -0.0250286373
 C          3.1082106158        4.4236426108        0.7887456488
 C          4.0341365822        3.2509309436        0.6802986075
 H          4.9327228138        3.3510295334        0.0903196508
 H          4.1448376533        2.6043452120        1.5388983986
 H          3.3748959371        5.3331768211        0.2718391295
 H          2.6009375357        4.5795448524        1.7289395365
 H          2.7189749473        3.3167011876       -1.1057787251
 O          2.2659153845        0.1555654152        2.2702264767
