  62
        -98.94044572
 C         -2.0501613607       -0.4515002500        0.0870157905
 C         -2.7206054609        0.7187530297        0.5279434410
 C         -4.0684562709        0.9389796897       -0.0047380889
 C         -4.5851885107        0.0635234900       -0.8857411293
 C         -5.9339179207        0.1604859700       -1.5457635493
 C         -7.0880286307       -0.3891255405       -0.6963148796
 C         -7.4855486308        0.4774965889        0.4992328908
 H         -8.4371501308        0.0931051886        0.8717955306
 H         -7.6573622110        1.5006920090        0.1635404412
 C         -6.4680912409        0.4747324086        1.6486952008
 H         -5.7893519507       -0.3732501412        1.5320824005
 H         -6.9910598109        0.3377794981        2.5978836307
 C         -5.6418985511        1.7555328087        1.7671723214
 H         -4.9309770411        1.6304967784        2.5879007413
 H         -6.2976542012        2.5932388385        2.0149036917
 C         -4.8478410911        2.1138777693        0.5040684915
 H         -4.1339178012        2.9011433194        0.7587078119
 H         -5.5192854911        2.4882362396       -0.2686177583
 H         -6.8205929105       -1.3895890306       -0.3485352900
 H         -7.9565997906       -0.4866003704       -1.3516878397
 H         -5.8728472306       -0.4269363296       -2.4644683996
 H         -6.1377505009        1.1985590001       -1.8103542889
 O         -3.9040849105       -1.0331986297       -1.3049104198
 C         -2.6300450005       -1.3297560597       -0.8298399799
 O         -2.1554327203       -2.3769125694       -1.3042314103
 O         -2.2109063410        1.5402938894        1.3372775814
 C         -0.6628421106       -0.6873943600        0.6561242905
 C          0.3912865693       -0.0658174795       -0.2233378192
 C          0.4492572894       -0.3421221789       -1.5857644894
 C          1.4338408693        0.2236710916       -2.3753493391
 C          2.3808473891        1.0698010915       -1.8247261087
 C          2.3327123590        1.3500486609       -0.4661343986
 C          1.3418164691        0.7827590204        0.3247573211
 H          1.2998951091        1.0177086500        1.3796973612
 N          3.3164469189        2.1859555309        0.1004861018
 S          4.9002389390        1.6561369012       -0.0697286784
 O          5.6462813188        2.3296924509        0.9683510719
 O          5.3365218190        1.8882058518       -1.4225271383
 C          4.7985339693       -0.0938503790        0.2568555509
 C          4.7164531393       -0.5083809495        1.5716558407
 C          4.5341434295       -1.8551825097        1.8398936301
 C          4.4239884097       -2.7582969192        0.7934236997
 C          4.5116207597       -2.3264896987       -0.5205616701
 C          4.7003804794       -0.9814221085       -0.7955689095
 H          4.7767121894       -0.6072944581       -1.8030538494
 H          4.4266687098       -3.0316310583       -1.3316126604
 H          4.2656788199       -3.8038245494        1.0037927593
 H          4.4692432995       -2.1956456601        2.8608905000
 H          4.8081777892        0.2245854302        2.3574416310
 H          3.1323323388        2.4219884004        1.0653922319
 H          3.1590233791        1.5138672019       -2.4243464985
 H          1.4654467594        0.0024372921       -3.4314945692
 H         -0.2822649505       -1.0099497388       -2.0150460197
 H         -0.6602135308       -0.1356640404        1.6097097807
 C         -0.3715368404       -2.1476741601        0.9762646899
 C          0.6631459697       -2.9634379196        0.2660545095
 C          0.9056013896       -2.5141249302        1.6733168897
 H          0.8708986297       -3.2439714205        2.4674532294
 H          1.6306841795       -1.7280334301        1.8234455301
 H          0.4344161799       -4.0014278596        0.0805373391
 H          1.2335537697       -2.4962682892       -0.5210138803
 H         -1.2652484603       -2.6778069204        1.2883760496
