  62
        -98.92832966
 C         -2.4191928993       -1.0543637309        0.5415356504
 C         -2.7246365097        0.2333998791        1.0516404101
 C         -4.0822287599        0.7344831987        0.8050204700
 C         -4.9620524496       -0.0387713217        0.1445153900
 C         -6.3991357097        0.2903746078       -0.1624508001
 C         -6.6330086900        1.4753508176       -1.1195154903
 C         -6.8606691304        2.8201975076       -0.4180341806
 H         -7.2303155504        2.6322103577        0.5906729494
 H         -7.6488823905        3.3618202973       -0.9449253207
 C         -5.6474216107        3.7528056280       -0.3514663506
 H         -5.8705747010        4.5403355280        0.3715807593
 H         -5.5096859508        4.2295550579       -1.3245898207
 C         -4.3195931805        3.0962271985        0.0274679196
 H         -3.5948425008        3.8856012587        0.2369572795
 H         -3.9270091103        2.5382688585       -0.8262132603
 C         -4.3958054703        2.1385883586        1.2324603597
 H         -5.3767731504        2.1872130184        1.7027810696
 H         -3.6430418005        2.4129934590        1.9743469597
 H         -7.5255262998        1.2398717672       -1.7012877504
 H         -5.8006711899        1.5462743877       -1.8192182203
 H         -6.9254537498        0.4736615978        0.7769594698
 H         -6.8156537994       -0.6154468924       -0.6075436400
 O         -4.6397416992       -1.2799518717       -0.3067863398
 C         -3.3654573090       -1.8137233613       -0.1480311896
 O         -3.2345770886       -2.9425662213       -0.6538716894
 O         -1.8968365200        0.9317927795        1.6980332301
 C         -1.0036389292       -1.5516216704        0.7703540005
 C         -0.1065823792       -1.1590377003       -0.3757471094
 C         -0.4512797390       -1.4403704406       -1.6946906994
 C          0.3921801309       -1.0795854305       -2.7292957794
 C          1.5928306107       -0.4414600301       -2.4713455394
 C          1.9392547105       -0.1430311298       -1.1586114194
 C          1.0873707106       -0.5011636099       -0.1224102994
 H          1.3639583604       -0.2550812197        0.8920794605
 N          3.1325828803        0.5360606906       -0.8693944195
 S          3.9436387103        0.1679596611        0.5647815407
 O          4.0100734107       -1.2658020689        0.7381425509
 O          3.3490476200        0.9139936111        1.6447772305
 C          5.5564271101        0.8310186315        0.1958138507
 C          6.5701464704       -0.0167107982       -0.2083478691
 C          7.8090286103        0.5218743821       -0.5196385591
 C          8.0104731899        1.8906359722       -0.4252477793
 C          6.9830936596        2.7287519619       -0.0171564995
 C          5.7427947797        2.1970485616        0.2973194405
 H          4.9176918495        2.8064337414        0.6278194303
 H          7.1441157492        3.7921032920        0.0578486104
 H          8.9751249098        2.3071872624       -0.6684913393
 H          8.6108503605       -0.1268207477       -0.8334985889
 H          6.3693114308       -1.0747315783       -0.2602743490
 H          3.7624588804        0.5821233707       -1.6587112194
 H          2.2520828207       -0.1671357300       -3.2808357494
 H          0.1158190211       -1.3068568907       -3.7480281494
 H         -1.3815809888       -1.9503558809       -1.8956891394
 H         -0.6532136194       -0.9996804602        1.6581520605
 C         -0.9179822887       -3.0340576803        1.1043362008
 C         -0.3314600784       -4.0614754503        0.1883360710
 C          0.4144023914       -3.6487318299        1.4196307610
 H          0.4818996216       -4.3427788897        2.2438984611
 H          1.2923260112       -3.0302880896        1.2931866509
 H         -0.8013622781       -5.0326902104        0.1641889911
 H          0.0471203616       -3.7384408403       -0.7682405990
 H         -1.7576968387       -3.3590789505        1.7106534408
