  62
        -98.95044827
 C         -1.7733106500       -1.2719934509       -0.2352098995
 C         -2.8451639803       -0.6113972112        0.4073607403
 C         -3.2479941407        0.6754211386       -0.1734510599
 C         -2.5980731008        1.1423404387       -1.2552242199
 C         -2.8953343611        2.4452239985       -1.9387771602
 C         -2.0254665416        3.5822938388       -1.3874005703
 C         -2.0194531717        3.6742929391        0.1384928997
 H         -1.5012042214        2.8013113393        0.5433010299
 H         -1.4150405120        4.5442616893        0.4071926496
 C         -3.4096291818        3.8016934787        0.7770010696
 H         -4.1298997818        4.1407174583        0.0310620695
 H         -3.3637558421        4.5664291988        1.5554134095
 C         -3.9289433914        2.5249005686        1.4410386798
 H         -3.1574737913        2.1218320290        2.1028443099
 H         -4.7886028915        2.7906136184        2.0625648597
 C         -4.3792981610        1.4098139783        0.4886908699
 H         -4.9158821208        0.6624752182        1.0808734400
 H         -5.0668316610        1.8166959180       -0.2558105802
 H         -2.3798964818        4.5243661387       -1.8111899004
 H         -0.9953049815        3.4236220491       -1.7151786302
 H         -2.6882604710        2.3270316984       -3.0040706201
 H         -3.9491082112        2.6844960581       -1.8078309603
 O         -1.5705805205        0.4815490289       -1.8439494798
 C         -1.1102022501       -0.7185792409       -1.3292670096
 O         -0.1288496199       -1.1946525206       -1.9334915994
 H         -0.1015511304       -0.5294781101        1.5346868305
 C          0.6124552199       -1.3081130399        1.3090899506
 C          0.1886390703       -2.4729625801        0.6824558708
 C          1.1293062707       -3.4613292199        0.4207668410
 C          2.4603326306       -3.2690456094        0.7503572810
 C          2.8852893601       -2.0836547991        1.3220429609
 C          1.9490380698       -1.0946199594        1.5989171007
 N          2.3223077193        0.1507148008        2.1500212805
 S          2.0977521390        1.4827598906        1.1525206103
 O          2.6077358986        2.6088036709        1.9057737102
 O          0.7219303790        1.5607362601        0.7395972202
 C          3.1770923692        1.1626463107       -0.2312107696
 C          2.7631504895        0.3128184204       -1.2370499295
 C          3.6530437497        0.0078530206       -2.2566139294
 C          4.9290757995        0.5488419510       -2.2524548594
 C          5.3281721392        1.4014522413       -1.2336471995
 C          4.4474362090        1.7073665011       -0.2095741296
 H          4.7103155387        2.3663240114        0.6023503803
 H          6.3200679290        1.8238917916       -1.2328102695
 H          5.6147827396        0.3047508411       -3.0484756693
 H          3.3332671899       -0.6554556196       -3.0442594393
 H          1.7643241596       -0.0963183699       -1.2283594995
 H          3.2674704993        0.1675284712        2.5097306306
 H          3.9279813201       -1.9209164288        1.5501336109
 H          3.1796999908       -4.0451854492        0.5386477812
 H          0.8211883510       -4.3808670200       -0.0494737189
 C         -1.2714021096       -2.5921939107        0.3212010007
 H         -1.8464719496       -2.7606967507        1.2443232607
 C         -1.5611342792       -3.7196568709       -0.6482626192
 C         -1.8351987088       -5.1041828509       -0.1436530490
 C         -2.9498145290       -4.2790218814       -0.7107003792
 H         -3.3551935289       -4.5467980217       -1.6748416691
 H         -3.6799010592       -3.8642814615       -0.0309350893
 H         -1.8157644588       -5.2605306408        0.9243101311
 H         -1.4780893585       -5.9437045109       -0.7208415088
 H         -1.0238547992       -3.6096208309       -1.5836950191
 O         -3.4393497002       -1.0792897212        1.4179526903
