  62
        -98.93467772
 C         -2.4439899636       -1.2405234213        0.0630883392
 C         -2.4429541357        0.0094972451       -0.5966715515
 C         -3.7587148178        0.6423018786       -0.8050346951
 C         -4.8706667768        0.0167809381       -0.3751878892
 C         -6.3325021774        0.3985542759       -0.4826799826
 C         -6.7435368315        1.8249432757       -0.8393474323
 C         -6.3962442070        2.8760499187        0.2144042592
 H         -6.6463857789        3.8592546763       -0.1899945310
 H         -7.0238355511        2.7079683437        1.0931388606
 C         -4.9432410800        2.8878161969        0.6830724376
 H         -4.7108149518        1.9458747851        1.1840946913
 H         -4.8384357987        3.6818102942        1.4274323090
 C         -3.9043642047        3.1366021287       -0.4088687781
 H         -2.9367197871        3.2739034686        0.0818755427
 H         -4.1432598841        4.0590895687       -0.9416542801
 C         -3.7400812522        2.0038785387       -1.4373185732
 H         -4.4842505151        2.0730394208       -2.2271012174
 H         -2.7557457593        2.1113824720       -1.9028890045
 H         -6.3332448240        2.1047434705       -1.8050983332
 H         -7.8314289457        1.8156294332       -0.9485690598
 H         -6.7629354973       -0.2809838266       -1.2265384007
 H         -6.7807800843        0.1266067095        0.4780980802
 O         -4.8195019111       -1.2016743239        0.2403725158
 C         -3.6229508488       -1.8506127017        0.4850801151
 O         -3.7396295643       -2.9405620034        1.0808452818
 H          1.5369697431       -1.3874370484       -0.1186018732
 C          1.1291383465       -0.8772918784        0.7372262964
 C         -0.1971507321       -1.0523646968        1.0990232773
 C         -0.6771681929       -0.3808305639        2.2209079169
 C          0.1420050572        0.4659230592        2.9410114528
 C          1.4575484816        0.6610371026        2.5588374386
 C          1.9536597497       -0.0203983488        1.4540912608
 N          3.3031293641        0.1215531439        1.0850002498
 S          3.7499707453        0.0920845241       -0.5422741291
 O          3.0081089534        1.0794238532       -1.2937341222
 O          3.6858843488       -1.2649034091       -1.0224500080
 C          5.4558522720        0.5913656284       -0.3892365486
 C          5.8010370307        1.9113114974       -0.6092901997
 C          7.1250517293        2.2927286388       -0.4580118779
 C          8.0757752602        1.3533590970       -0.0883586884
 C          7.7145762045        0.0316518693        0.1275742820
 C          6.3928848982       -0.3563376889       -0.0232836522
 H          6.0667080105       -1.3724705188        0.1247951730
 H          8.4572178441       -0.6963373184        0.4116876784
 H          9.1052331117        1.6527764289        0.0292041570
 H          7.4092334494        3.3185751887       -0.6291465337
 H          5.0294338117        2.6045333309       -0.9041115599
 H          3.7491793513        0.8969603056        1.5569925398
 H          2.0947468476        1.3328267149        3.1138779073
 H         -0.2484017143        0.9870514516        3.8024458053
 H         -1.7092636554       -0.5247318880        2.5124022997
 C         -1.1336823875       -1.9560074006        0.3338299491
 H         -1.3818202388       -2.8158784952        0.9742217046
 C         -0.5446654194       -2.4713298550       -0.9628125262
 C          0.3077653439       -3.7033239705       -0.9684389530
 C         -1.0731788474       -3.7446607878       -1.5487469350
 H         -1.1830730376       -3.8123262945       -2.6206955389
 H         -1.8463383236       -4.2584716783       -0.9957892955
 H          0.4744902825       -4.1982454951       -0.0235190648
 H          1.1541711278       -3.7382320355       -1.6382155132
 H         -0.2890952735       -1.6722050459       -1.6509609105
 O         -1.3932387415        0.5777087651       -0.9989626097
