  62
        -98.93929927
 C          0.7249645855        1.3040666359        0.3049510775
 C          1.5139213875        0.5759066117        1.2268185059
 C          2.4931812424       -0.3789251482        0.6722805580
 C          2.5538630970       -0.5371953607       -0.6628723180
 C          3.5315670787       -1.3541233445       -1.4658717937
 C          4.9255570932       -0.7093093092       -1.5330567617
 C          5.4578152098       -0.1798783793       -0.2043577806
 H          4.7670510058        0.5690660895        0.1872016047
 H          6.4048451551        0.3280106002       -0.4050494487
 C          5.7136555601       -1.2408169148        0.8634939079
 H          6.1884094614       -0.7395592931        1.7108970058
 H          6.4209457795       -1.9774278655        0.4761045035
 C          4.4763335937       -1.9774019320        1.3823694205
 H          4.7658154775       -2.4939354346        2.3022290049
 H          4.1559917566       -2.7470394067        0.6852609440
 C          3.3038779596       -1.0700808596        1.7417890611
 H          3.6537000158       -0.2828163835        2.4195198474
 H          2.5792598474       -1.6488163248        2.3285116472
 H          4.8766385538        0.1314415871       -2.2293101842
 H          5.6240271524       -1.4428513459       -1.9393273042
 H          3.1319701836       -1.4099636637       -2.4802043339
 H          3.5957257592       -2.3648967196       -1.0747060195
 O          1.7008795707        0.1086612858       -1.5052725453
 C          0.7587074422        1.0200390814       -1.0608117988
 O          0.0416320563        1.4846860506       -1.9646047111
 O          1.4248540911        0.7280883935        2.4761132204
 C         -0.2240668215        2.3525081507        0.8561236666
 C         -1.5948667350        2.1808261739        0.2563486231
 C         -2.1981494203        3.1160283946       -0.5737735768
 C         -3.4502890048        2.8688405450       -1.1078573388
 C         -4.1203175868        1.6914977247       -0.8321635952
 C         -3.5264313115        0.7516306634        0.0036367039
 C         -2.2777844468        1.0059088731        0.5462792337
 H         -1.8253960527        0.2792281296        1.2061717485
 N         -4.1876971887       -0.4439897932        0.3125513308
 S         -3.3724989689       -1.7921483220        0.8359165208
 O         -4.3060214776       -2.8765218646        0.6115389802
 O         -2.9421022118       -1.6184550814        2.2014524292
 C         -1.9576596658       -2.0258071410       -0.2260605832
 C         -2.0785997032       -1.8240159440       -1.5858685575
 C         -0.9980675905       -2.1111565958       -2.4037600950
 C          0.1727719256       -2.6077964592       -1.8543780642
 C          0.2822483923       -2.7978180178       -0.4860108724
 C         -0.7905868204       -2.4998382364        0.3374348226
 H         -0.7432410640       -2.6220679052        1.4083979766
 H          1.1957744285       -3.1751195665       -0.0551001883
 H          1.0062784627       -2.8444974349       -2.4960790866
 H         -1.0724179989       -1.9463488547       -3.4664907182
 H         -3.0015351890       -1.4458719280       -1.9942105462
 H         -5.0030837577       -0.6588305779       -0.2404104527
 H         -5.0931376351        1.4967415599       -1.2565773206
 H         -3.9070295648        3.5995728436       -1.7578423036
 H         -1.6771921860        4.0253384548       -0.8234711464
 H         -0.2961546753        2.1186903286        1.9318191887
 C          0.3032527890        3.7764736481        0.7542993037
 C          1.7734112261        4.0585566985        0.8265298819
 C          1.0297616228        4.2835378600       -0.4539994172
 H          0.8508442645        5.3014051825       -0.7683477115
 H          1.1866505606        3.5958460509       -1.2700090469
 H          2.1051740720        4.9174484567        1.3903691520
 H          2.4412282033        3.2114970971        0.8884329620
 H         -0.3456451694        4.4825130647        1.2637560790
