  62
        -98.94535034
 C         -2.4438389707       -1.1270397152       -0.0638087923
 C         -3.0662945823       -0.2296889949        0.8358297254
 C         -3.5446076768        1.0337318772        0.2614891968
 C         -3.3564996341        1.2719561305       -1.0495245418
 C         -3.7334728720        2.5435886829       -1.7517175817
 C         -2.5662876072        3.5407826721       -1.7534099534
 C         -1.9274326557        3.7494095857       -0.3799991637
 H         -1.4318644889        2.8242050940       -0.0728112309
 H         -1.1400726244        4.4977314279       -0.4975462435
 C         -2.9048224888        4.2000108485        0.7150981091
 H         -2.4401392157        5.0077495708        1.2844624225
 H         -3.8100443404        4.6023778883        0.2590175289
 C         -3.2844239841        3.1096379099        1.7187705659
 H         -2.3757468747        2.6395234225        2.1049956516
 H         -3.7898562563        3.5859942113        2.5630854710
 C         -4.2124926111        2.0082102192        1.1905001770
 H         -5.0850655457        2.4595886731        0.7147500614
 H         -4.5523131755        1.4208042143        2.0485539400
 H         -1.7933036917        3.1709648599       -2.4313924952
 H         -2.9282561816        4.4966726176       -2.1365866971
 H         -3.9936459388        2.3025542091       -2.7836752798
 H         -4.5997576058        2.9822112038       -1.2603742063
 O         -2.7497875773        0.3897088176       -1.8824274031
 C         -2.2514741528       -0.8161516862       -1.4106179053
 O         -1.6833805480       -1.5079117319       -2.2755202796
 O         -3.2066554048       -0.4704608659        2.0668175451
 C         -1.8705006270       -2.4255739926        0.4805854611
 C         -0.3664781181       -2.3398602050        0.3944021416
 C          0.4291605446       -3.2340851693       -0.3076133238
 C          1.7974161487       -3.0357392357       -0.3919371263
 C          2.3986001859       -1.9493159388        0.2170120253
 C          1.6114872464       -1.0550960919        0.9312121205
 C          0.2465194003       -1.2610111537        1.0218542487
 H         -0.3657275443       -0.5569034227        1.5732996005
 N          2.2160869775        0.0733431131        1.5371843359
 S          2.6906871296        1.2563722145        0.4312851059
 O          2.7765356130        2.4833834647        1.1939940967
 O          1.8194235481        1.2787908380       -0.7226840181
 C          4.3265808618        0.7379604264       -0.0364392640
 C          5.3093330389        0.7377754278        0.9344480045
 C          6.5865914743        0.3239522951        0.5920393627
 C          6.8570991141       -0.0788919260       -0.7075732223
 C          5.8593419279       -0.0711033437       -1.6704860212
 C          4.5787543050        0.3406304080       -1.3344328640
 H          3.7683818925        0.3568552326       -2.0458943836
 H          6.0709797007       -0.3855130237       -2.6798384326
 H          7.8516956768       -0.4015408172       -0.9721113949
 H          7.3651998653        0.3157704309        1.3375801838
 H          5.0542249269        1.0634680666        1.9290321197
 H          1.6148063288        0.5066885901        2.2256348223
 H          3.4620805536       -1.7884984507        0.1466465308
 H          2.4031093484       -3.7352217875       -0.9474101901
 H         -0.0236887007       -4.0770594088       -0.8027379857
 H         -2.1516356508       -2.4444513463        1.5438608231
 C         -2.4653052656       -3.6350065993       -0.2047417163
 C         -2.4524334155       -4.9639715675        0.4881740666
 C         -3.7403718209       -4.2157763478        0.3262758952
 H         -4.4695858416       -4.5861934086       -0.3783407752
 H         -4.1751096728       -3.7480750265        1.1976812126
 H         -2.2991620914       -5.8528921643       -0.1043949686
 H         -2.0129194691       -5.0084687159        1.4730788294
 H         -2.3361532470       -3.6142309198       -1.2803359801
