  62
        -98.93991088
 C         -1.6118183998       -1.4951123690        0.3723532402
 C         -1.4665897096       -0.3276749691       -0.4113239500
 C         -2.2596814094        0.8498899411       -0.0002443301
 C         -3.0413335594        0.7587427113        1.0918958299
 C         -3.9464517992        1.8052067115        1.6879362698
 C         -5.2428775292        2.0011925216        0.8879756498
 C         -5.0516783092        2.1092318215       -0.6219784102
 H         -4.5764343293        1.1976420214       -0.9879091901
 H         -6.0437139091        2.1635426616       -1.0780151102
 C         -4.2533478289        3.3237395713       -1.0904514803
 H         -4.3054167089        3.3416290012       -2.1818847003
 H         -4.7336085188        4.2325079214       -0.7212898504
 C         -2.7760231189        3.3497879611       -0.6881860203
 H         -2.6512445589        3.6798386812        0.3397741296
 H         -2.2825626188        4.0968841409       -1.3160220104
 C         -2.0379665092        2.0338118409       -0.9092008102
 H         -2.2330215992        1.6779889009       -1.9270841602
 H         -0.9589559191        2.2224777707       -0.8743072702
 H         -5.8946773993        1.1459673418        1.0831749499
 H         -5.7432664590        2.8971139118        1.2599326097
 H         -4.2066086993        1.4572712517        2.6903717398
 H         -3.4142692291        2.7460292514        1.7932231697
 O         -3.1313413596       -0.3872934686        1.8295935200
 C         -2.4341828998       -1.5316711188        1.4960715302
 O         -2.6152327100       -2.4952873787        2.2697237002
 H          0.5963606403       -1.0910986893        1.5329271601
 C          1.2164414602       -1.5755525295        0.7881013902
 C          0.6341001101       -2.4721859494       -0.0985180897
 C          1.4480013800       -3.0906831797       -1.0394159597
 C          2.8022696000       -2.8089691299       -1.0916895397
 C          3.3739968002       -1.9033213699       -0.2174071098
 C          2.5684442503       -1.2752259097        0.7243986802
 N          3.1300568704       -0.3445059897        1.6204325901
 S          4.0187328306        0.9363295601        1.0101315800
 O          5.2330009405        0.4268799498        0.4244728100
 O          4.1788774608        1.8424290802        2.1249137899
 C          3.0093719308        1.6959195001       -0.2481113201
 C          2.2210335409        2.7740854903        0.1015612598
 C          1.4233635411        3.3632502903       -0.8654943503
 C          1.4151563810        2.8551608002       -2.1559411503
 C          2.2044231808        1.7661523200       -2.4879575401
 C          3.0147765007        1.1808834500       -1.5287313201
 H          3.6504381605        0.3417200999       -1.7568888900
 H          2.1892079207        1.3680928200       -3.4893901301
 H          0.7867305611        3.3084970202       -2.9063547003
 H          0.8100445612        4.2130344005       -0.6094677904
 H          2.2588024310        3.1390450904        1.1156846097
 H          2.4689018005       -0.0001203395        2.3017028100
 H          4.4249717002       -1.6656208001       -0.2525715298
 H          3.4219122099       -3.3002370301       -1.8265104696
 H          1.0209010198       -3.7938411397       -1.7354076496
 C         -0.8461165600       -2.7513849592        0.0055090903
 H         -1.0043004401       -3.4587607691        0.8335577604
 C         -1.4241225801       -3.3496798992       -1.2624336397
 C         -1.4556506503       -4.8345116392       -1.4613921595
 C         -2.7249249202       -4.0886769690       -1.1825088496
 H         -3.4400356802       -3.9650174189       -1.9819151296
 H         -3.1761254702       -4.1896272088       -0.2057575996
 H         -1.3024523204       -5.2255700594       -2.4560832795
 H         -1.0525558804       -5.4550885892       -0.6752526294
 H         -1.2593434900       -2.7186653193       -2.1284228597
 O         -0.7075797796       -0.2590048193       -1.4122215800
