  62
        -98.94327153
 C         -2.3753213837       -0.4903195637        0.1092886536
 C         -3.4375251393       -0.3892001547        1.0397193193
 C         -4.4229385940        0.6677083040        0.7779090106
 C         -4.2533775544        1.4754733905       -0.2850033573
 C         -5.2046235788        2.5613370502       -0.6952919857
 C         -6.2550697955        2.0362653983       -1.6839653862
 C         -6.9341753325        0.7423073881       -1.2351132891
 H         -7.6751472544        0.4838378353       -1.9947316146
 H         -6.1950821080       -0.0620294689       -1.2207207237
 C         -7.6173238083        0.8263383631        0.1370027559
 H         -8.6013729780        0.3579731011        0.0671951231
 H         -7.7743960441        1.8706060632        0.4094038228
 C         -6.8659344852        0.1163024979        1.2646929635
 H         -6.6253003135       -0.9048940109        0.9583842427
 H         -7.5329018469        0.0497868293        2.1284232455
 C         -5.5737451387        0.7951184039        1.7361145067
 H         -5.7715240062        1.8443496361        1.9645521824
 H         -5.2537525468        0.2975077419        2.6563349263
 H         -5.7656607663        1.8508727123       -2.6428916610
 H         -7.0083114327        2.8123432814       -1.8314288873
 H         -4.6318200786        3.3562651363       -1.1756897892
 H         -5.6930540428        2.9630638044        0.1903427658
 O         -3.2078669829        1.3627026158       -1.1430527868
 C         -2.2466057472        0.3765418643       -0.9758707962
 O         -1.3531305665        0.3798750581       -1.8433090512
 O         -3.5527733302       -1.1441438685        2.0426155847
 C         -1.3230717776       -1.5654507551        0.3179096602
 C          0.0187711297       -0.9140119823        0.5431670122
 C          0.1728880016       -0.0759980488        1.6453280373
 C          1.3758583325        0.5561174392        1.8904989340
 C          2.4529523299        0.3713871347        1.0402573977
 C          2.3130357606       -0.4660355488       -0.0567478482
 C          1.1034798295       -1.1085326118       -0.2955801698
 H          1.0114747316       -1.7526827006       -1.1559942960
 N          3.3958295923       -0.6474947792       -0.9311378652
 S          4.9148027983       -0.9658339024       -0.2998138444
 O          5.6257255706       -1.6520816326       -1.3565313256
 O          4.8282455632       -1.6548924312        0.9668223100
 C          5.6367214296        0.6456441244       -0.0705672062
 C          5.6709546745        1.5049755013       -1.1512008962
 C          6.2449184548        2.7561909348       -0.9928856636
 C          6.7748507068        3.1239083800        0.2350579427
 C          6.7350554119        2.2487950902        1.3095934921
 C          6.1612447390        0.9959976194        1.1580538217
 H          6.1036717698        0.2849020390        1.9668114717
 H          7.1475897216        2.5364768726        2.2633341330
 H          7.2214413508        4.0983702526        0.3548650244
 H          6.2768817414        3.4397332364       -1.8260735564
 H          5.2509007794        1.1816833936       -2.0891041324
 H          3.1922789019       -1.2392213972       -1.7230651278
 H          3.3932685479        0.8657071586        1.2218589230
 H          1.4779586229        1.2025783260        2.7489957021
 H         -0.6701401658        0.0730088779        2.3063343957
 H         -1.6110410316       -2.0772699991        1.2476813793
 C         -1.3440931218       -2.5691799777       -0.8148315543
 C         -0.7800021851       -3.9421307086       -0.6062631732
 C         -2.2615693112       -3.7499184647       -0.7232008239
 H         -2.7567956991       -4.0888372692       -1.6208222432
 H         -2.8626777686       -3.8448919267        0.1692213964
 H         -0.2585690237       -4.4175970384       -1.4235458249
 H         -0.3720772392       -4.1708531376        0.3668558102
 H         -1.2233118799       -2.1080010917       -1.7886670368
