  62
        -98.93836866
 C          1.6099357985        1.5122828710        0.5609417798
 C          2.3379233684        1.0616814312       -0.5649353503
 C          3.2158424192       -0.1074370483       -0.3513760904
 C          3.2259919999       -0.7103453981        0.8495172997
 C          4.0148140707       -1.9192448375        1.2733710496
 C          3.2098802314       -3.2120977480        1.0587312501
 C          3.3689233814       -3.8384854382       -0.3255159599
 H          4.3813194415       -4.2355220976       -0.4248195801
 H          2.6834561518       -4.6873339886       -0.3839206395
 C          3.0946764504       -2.8924635185       -1.4973999500
 H          2.2179821302       -2.2803424890       -1.2791081398
 H          2.8608757205       -3.4992755488       -2.3741932598
 C          4.2869561098       -1.9822443879       -1.8259828305
 H          5.1684299602       -2.3330090473       -1.2898829507
 H          4.5222074895       -2.0602390279       -2.8896608205
 C          4.0618200790       -0.4934809380       -1.5350362406
 H          5.0345669288        0.0011991826       -1.4374959910
 H          3.5642116085       -0.0284478484       -2.3920991905
 H          2.1574990813       -2.9851242886        1.2461613504
 H          3.5254268921       -3.9474171277        1.8016202501
 H          4.9677157006       -1.9583398071        0.7539422793
 H          4.2049820010       -1.8010472773        2.3422561195
 O          2.4367971300       -0.2955684784        1.8807678598
 C          1.6267692893        0.8147732712        1.7704527299
 O          0.9742562495        1.0810018609        2.8014406701
 H         -1.3733374612        1.5248508894        1.5799221907
 C         -1.5466286416        1.7167742291        0.5286266207
 C         -0.5621307322        2.3673965096       -0.2058002897
 C         -0.7777001027        2.5886052692       -1.5596517596
 C         -1.9565761327        2.1722941785       -2.1549137492
 C         -2.9411748321        1.5379142780       -1.4186628688
 C         -2.7299671515        1.3044859684       -0.0650715288
 N         -3.7261398609        0.6699312579        0.7048334716
 S         -4.2802789602       -0.8307492125        0.2174635320
 O         -4.9802906807       -0.6919328031       -1.0338803178
 O         -5.0513632296       -1.3320209328        1.3313791823
 C         -2.8167979997       -1.8232524617       -0.0081833983
 C         -2.1560292001       -1.7914715715       -1.2199797585
 C         -0.9964940997       -2.5353824309       -1.3676675387
 C         -0.5234072290       -3.2956942404       -0.3095136388
 C         -1.1948659886       -3.3117294106        0.9032393214
 C         -2.3503624790       -2.5638955913        1.0595110117
 H         -2.9076269287       -2.5547232814        1.9826625618
 H         -0.8220332480       -3.9023243803        1.7250150614
 H          0.3730595913       -3.8819202099       -0.4334633990
 H         -0.4661684400       -2.5198499407       -2.3064948189
 H         -2.5600896307       -1.1990671419       -2.0241579585
 H         -3.5038335406        0.6422606882        1.6900202315
 H         -3.8640677520        1.2119400574       -1.8707221685
 H         -2.1132732631        2.3491059682       -3.2082920292
 H         -0.0136502632        3.0679715896       -2.1488043199
 C          0.7161125078        2.7428253204        0.5033824599
 H          0.4594976880        2.9695866104        1.5473292199
 C          1.4142113069        3.9470577107       -0.0907872005
 C          0.8113180262        5.3043470704        0.1059970795
 C          2.0731388466        4.9332485913        0.8240897691
 H          3.0000421263        5.3884438217        0.5088073588
 H          2.0199752871        4.7457650314        1.8869569592
 H         -0.1001205137        5.3662598300        0.6816304797
 H          0.8697793555        6.0175777103       -0.7016908607
 H          1.9074156468        3.7427834709       -1.0317021706
 O          2.2791040278        1.6020518810       -1.6995987004
