  62
        -98.93529792
 C          1.6585952082        1.4570285408        0.4169906742
 C          1.8185989592        0.2118866673        1.0744800383
 C          3.1080218937       -0.4784480862        0.9035110159
 C          4.0419449309        0.0666918995        0.1018155022
 C          5.4556895231       -0.3707020196       -0.2176745199
 C          5.9163519842       -1.7979256293        0.0675137530
 C          5.2211345977       -2.8723262391       -0.7654495647
 H          5.4918779524       -2.7333698967       -1.8149765930
 H          5.6033140179       -3.8455365172       -0.4490173759
 C          3.6973561910       -2.8850455131       -0.6719032371
 H          3.2919345127       -1.9793574178       -1.1276944594
 H          3.3340887174       -3.7324282446       -1.2593717484
 C          3.1408057549       -3.0226399374        0.7442551451
 H          3.6184215777       -3.8667072013        1.2452766568
 H          2.0756269368       -3.2510024821        0.6605137922
 C          3.2781299133       -1.7766199805        1.6402272063
 H          4.2260552552       -1.7784683270        2.1753890046
 H          2.4817273809       -1.8089329497        2.3896712980
 H          5.8217718499       -2.0229310080        1.1258215902
 H          6.9830333484       -1.8322703447       -0.1705558577
 H          5.5983455647       -0.1546455523       -1.2810960993
 H          6.1104830090        0.3188313324        0.3269974623
 O          3.8227163789        1.2398361693       -0.5563600826
 C          2.6493647330        1.9702949287       -0.4195681235
 O          2.6364493679        3.0185718655       -1.0881478708
 O          0.9209993466       -0.2944454300        1.8011621451
 C          0.3603621636        2.2010452278        0.6716692246
 C         -0.6914631001        1.8336769156       -0.3428325663
 C         -0.4336505425        1.8895613965       -1.7095153129
 C         -1.4170741028        1.5502859313       -2.6203350679
 C         -2.6641056198        1.1301922823       -2.1894644003
 C         -2.9286101016        1.0629413421       -0.8273658330
 C         -1.9460918146        1.4261917971        0.0845382889
 H         -2.1678156031        1.3663434514        1.1393917224
 N         -4.1812672458        0.6346090048       -0.3524314284
 S         -4.2237257449       -0.5844457609        0.7997085102
 O         -5.5975219543       -1.0366285576        0.7980050682
 O         -3.7195046252       -0.0908985310        2.0541224521
 C         -3.1675803588       -1.8504089371        0.1213727940
 C         -3.7432445867       -2.7793076102       -0.7252473292
 C         -2.9368367725       -3.7202704934       -1.3429687814
 C         -1.5679201578       -3.7059052757       -1.1197690226
 C         -1.0077306506       -2.7658664263       -0.2701882888
 C         -1.8088629389       -1.8285798365        0.3632661294
 H         -1.3784110424       -1.1013369306        1.0335076519
 H          0.0558219923       -2.7403458795       -0.0914901090
 H         -0.9344305211       -4.4303645250       -1.6069745243
 H         -3.3737521999       -4.4557822218       -1.9990278687
 H         -4.8114607750       -2.7540417113       -0.8691841591
 H         -4.8503018056        0.4394359711       -1.0841988430
 H         -3.4273468883        0.8576695020       -2.9023926226
 H         -1.2080741694        1.6050660138       -3.6779993668
 H          0.5412378548        2.2098874357       -2.0454994774
 H          0.0107673237        1.8276847587        1.6484041874
 C          0.5478498735        3.7058493272        0.8100237026
 C          0.0366945090        4.7016557572       -0.1828755929
 C         -0.6273471825        4.5732027689        1.1530552022
 H         -0.4957133171        5.3614802698        1.8787433209
 H         -1.5981204991        4.1005028248        1.1859988155
 H          0.6496493455        5.5677708889       -0.3798159708
 H         -0.4891943516        4.3366091398       -1.0505775789
 H          1.4890835406        3.9521282251        1.2913454859
