  62
        -98.94462567
 C         -2.6653159078       -1.2909389381        0.1259401223
 C         -2.5555594236       -0.2947075579       -0.8746847772
 C         -3.5235514088        0.8065752992       -0.7855190747
 C         -4.4573090040        0.8058554189        0.1826817666
 C         -5.5277747805        1.8435851717        0.3846692395
 C         -5.0648459624        3.0700319733        1.1828096148
 C         -4.1250320730        4.0160197285        0.4342897248
 H         -4.5671824204        4.2822594537       -0.5262192644
 H         -4.0534768340        4.9312561977        1.0250895672
 C         -2.7106415269        3.4604920932        0.2145979075
 H         -1.9723478428        4.2248222107        0.4678505512
 H         -2.5378961847        2.6183261573        0.8891288545
 C         -2.4195249123        3.0118621608       -1.2176813163
 H         -1.4045669220        2.6046124870       -1.2473638420
 H         -2.4528327355        3.8755540729       -1.8859441982
 C         -3.3815790582        1.9426337935       -1.7527466323
 H         -4.3537268021        2.3859848787       -1.9674707451
 H         -2.9657203981        1.5415145229       -2.6803237484
 H         -5.9585124835        3.6302595277        1.4668196297
 H         -4.5806615151        2.7276524458        2.1001994018
 H         -5.9159837255        2.1627960011       -0.5828152892
 H         -6.3319934992        1.3557881128        0.9395201615
 O         -4.5470744487       -0.1853082387        1.1085063571
 C         -3.6391638832       -1.2299916022        1.1259665072
 O         -3.8064996964       -2.0375496734        2.0614806872
 H          0.4042948259       -1.7718232172       -1.4507421384
 C          0.6113915810       -1.5728115487       -0.4114671241
 C         -0.3333647995       -1.8865258547        0.5522340982
 C         -0.0534313250       -1.5878526421        1.8830648363
 C          1.1434699051       -0.9939573759        2.2358989065
 C          2.0814894336       -0.6738847553        1.2690692894
 C          1.8039185164       -0.9521700939       -0.0617598532
 N          2.7428025327       -0.6169498058       -1.0525898203
 S          3.4138641183        0.9215796395       -1.0167956900
 O          2.5303880839        1.8830047892       -0.3988845452
 O          3.8109347951        1.1937207694       -2.3813244991
 C          4.8793776228        0.7121023708       -0.0251650653
 C          5.7629628509       -0.2913847621       -0.3718201803
 C          6.9124493024       -0.4612335370        0.3829905870
 C          7.1599948759        0.3724201752        1.4635383529
 C          6.2653073243        1.3777350113        1.7964331519
 C          5.1127805086        1.5521051472        1.0458840173
 H          4.3856507234        2.3162097597        1.2711271069
 H          6.4591463150        2.0253394561        2.6364350076
 H          8.0553006168        0.2379239001        2.0497541394
 H          7.6103731833       -1.2421487762        0.1273814464
 H          5.5349953833       -0.9155513204       -1.2195327429
 H          2.4347575298       -0.8453189783       -1.9872622535
 H          3.0106653282       -0.1968038173        1.5349553939
 H          1.3481101896       -0.7723575700        3.2724137666
 H         -0.7972657473       -1.8145366609        2.6347204364
 C         -1.6860554637       -2.4529543223        0.1957098325
 H         -2.0238764764       -3.0819916482        1.0297217086
 C         -1.6949296632       -3.2801241872       -1.0724916088
 C         -1.0574186641       -4.6361489316       -1.0654234868
 C         -2.5487716285       -4.5091411715       -1.1368271907
 H         -3.0436556428       -4.7431800262       -2.0675113641
 H         -3.1274455978       -4.7615439025       -0.2602518427
 H         -0.5265981872       -4.9621020576       -1.9468082124
 H         -0.6216995267       -4.9749983124       -0.1377537880
 H         -1.6185987415       -2.6864985544       -1.9748496691
 O         -1.7068926149       -0.3148961483       -1.8051699138
