  62
        -98.93916439
 C          2.3452161781        1.2735362853       -0.0166427821
 C          3.1379614495        0.5580702223        0.9073273211
 C          3.8902952431       -0.6010451761        0.3882366196
 C          3.7682239632       -0.9187746623       -0.9143208002
 C          4.3920416915       -2.0732257206       -1.6525297750
 C          3.6912730746       -3.4094822032       -1.3579994745
 C          3.3645067433       -3.6535028719        0.1131424262
 H          2.7291621261       -2.8433913382        0.4772620702
 H          2.7770754083       -4.5737592482        0.1740421731
 C          4.5736701616       -3.8069662255        1.0331423105
 H          4.1942856494       -4.0626882001        2.0258486501
 H          5.1824931098       -4.6442192975        0.6851006873
 C          5.4722145905       -2.5758957769        1.1701473726
 H          6.1175175291       -2.4631801826        0.3032870117
 H          6.1302349639       -2.7483921152        2.0267582871
 C          4.7307726745       -1.2720778883        1.4483292991
 H          5.4607963688       -0.5176114499        1.7655607223
 H          4.0704791777       -1.4129508842        2.3118360957
 H          4.3194563187       -4.2191983075       -1.7329115478
 H          2.7499691396       -3.4270532953       -1.9136893008
 H          4.2894230402       -1.8557861407       -2.7179247501
 H          5.4524201408       -2.1330699979       -1.4265470738
 O          2.9746659639       -0.2086463060       -1.7671653444
 C          2.2452022105        0.8909679405       -1.3538270436
 O          1.5677585078        1.4291743341       -2.2495560292
 O          3.2099630583        0.8629240846        2.1298420728
 C          1.5409028055        2.4672058219        0.4658729307
 C          0.0702491912        2.2055845249        0.2510212462
 C         -0.7885183043        3.0982671068       -0.3753743430
 C         -2.1214129717        2.7732424735       -0.5622363801
 C         -2.6276070520        1.5635208387       -0.1247285998
 C         -1.7789248086        0.6657576576        0.5102747024
 C         -0.4463728954        0.9950711627        0.6979254847
 H          0.2153581642        0.2914041781        1.1892566306
 N         -2.2855438112       -0.5635508700        0.9723216877
 S         -3.1188436611       -1.5233405183       -0.1280517080
 O         -2.9884220564       -2.8728927414        0.3783267103
 O         -2.6681625910       -1.2984431031       -1.4820691652
 C         -4.8104043981       -0.9979889804        0.0532471879
 C         -5.5246076031       -0.5839415996       -1.0538767187
 C         -6.8426346095       -0.1862241600       -0.8903291818
 C         -7.4193981728       -0.2100877744        0.3702374159
 C         -6.6887428737       -0.6307851234        1.4716796539
 C         -5.3714704146       -1.0311231320        1.3150231341
 H         -4.7702507852       -1.3678968707        2.1428341462
 H         -7.1405749208       -0.6476817948        2.4503507737
 H         -8.4445579544        0.1009431395        0.4948805328
 H         -7.4117558101        0.1409263881       -1.7456010408
 H         -5.0309810251       -0.5753508156       -2.0127563657
 H         -1.5998473584       -1.1184247267        1.4647920718
 H         -3.6627221930        1.3046628792       -0.2763398839
 H         -2.7755564559        3.4731908715       -1.0592417398
 H         -0.4125226490        4.0435675693       -0.7300394817
 H          1.7244446971        2.5247599048        1.5492400106
 C          2.0371552558        3.7422314819       -0.1813777545
 C          1.8765124503        5.0560780295        0.5216586092
 C          3.2330003600        4.4311683830        0.4022035834
 H          3.9510447463        4.8752806915       -0.2706748939
 H          3.6758462542        3.9922055693        1.2844032844
 H          1.6649907078        5.9343308414       -0.0692417366
 H          1.3993792194        5.0491018604        1.4898369731
 H          1.9494109653        3.7214743146       -1.2618507605
