  62
        -98.93286637
 C          2.2516029086       -0.0024833340        0.3661339390
 C          3.2836963298        0.7877961949       -0.1904473096
 C          4.5296156202        0.0898193207       -0.5748835469
 C          4.6092345558       -1.2432507049       -0.4145084558
 C          5.7743812196       -2.1524093588       -0.7012375548
 C          6.8768444710       -2.0560682856        0.3662538073
 C          7.2180909697       -0.6365315995        0.8120363462
 H          6.3162256314       -0.1550305739        1.1945142367
 H          7.9233174469       -0.7106021546        1.6441256268
 C          7.8514208352        0.2475604685       -0.2595285330
 H          8.1152071100        1.1953611732        0.2166590039
 H          8.7765410755       -0.2179996523       -0.6067603089
 C          6.9763405488        0.5551017292       -1.4762170591
 H          6.9377916183       -0.2919150045       -2.1556494664
 H          7.4575083101        1.3705469271       -2.0242319708
 C          5.5655152908        1.0302799935       -1.1435410968
 H          5.1155820976        1.4481411661       -2.0521682749
 H          5.6271129082        1.8697797882       -0.4418491142
 H          7.7732792286       -2.5453235688       -0.0183253992
 H          6.5417519616       -2.6090908680        1.2471852418
 H          5.3817622519       -3.1716334038       -0.7045310809
 H          6.1727091685       -1.9480933821       -1.6905508535
 O          3.5789182064       -1.9716760333        0.1042890718
 C          2.4000326373       -1.3852123475        0.5104618608
 O          1.5664394344       -2.1865167313        0.9821606690
 O          3.2062066436        2.0330338623       -0.3695035477
 C          0.9254539435        0.5592472294        0.8499713576
 C         -0.0566730235        0.7902146619       -0.2739171178
 C          0.2317893492        1.6399311596       -1.3367393518
 C         -0.7101609152        1.8694853177       -2.3226620711
 C         -1.9617399452        1.2829928948       -2.2554742700
 C         -2.2582127437        0.4307635709       -1.1985949061
 C         -1.3010398170        0.1796313793       -0.2256820734
 H         -1.5421587861       -0.4972489372        0.5815201840
 N         -3.5143142890       -0.1889283083       -1.1001395091
 S         -4.1699805616       -0.3911623094        0.4440263426
 O         -3.8984431669        0.7758743846        1.2521065652
 O         -3.7239169028       -1.6542345936        0.9771845984
 C         -5.9087777378       -0.4794955831        0.0574493602
 C         -6.4521019727       -1.6941083235       -0.3162067534
 C         -7.7974877085       -1.7531654677       -0.6438165312
 C         -8.5722939171       -0.6037851346       -0.5936118878
 C         -8.0133499957        0.6076240031       -0.2148912426
 C         -6.6684227053        0.6740864394        0.1131928463
 H         -6.1932383539        1.5908993382        0.4232835038
 H         -8.6189788994        1.4985167603       -0.1731858000
 H         -9.6191956899       -0.6531233251       -0.8481889806
 H         -8.2361051402       -2.6938194882       -0.9353285507
 H         -5.8131044078       -2.5617751417       -0.3308256038
 H         -4.1903591233        0.1822248920       -1.7536930936
 H         -2.7017491480        1.4784016276       -3.0168145672
 H         -0.4730328871        2.5277143358       -3.1449631082
 H          1.1981478906        2.1180574634       -1.3778618686
 H          0.4969927480       -0.2169524036        1.4999495138
 C          1.0687369831        1.8337964572        1.6630423721
 C         -0.0888426893        2.2848477754        2.5002410480
 C          1.1492998742        1.7518238173        3.1557891934
 H          1.7954449529        2.4428895628        3.6761625199
 H          1.1051621316        0.7704552205        3.6063629106
 H         -0.2907191886        3.3428919553        2.5693860400
 H         -0.9786881505        1.6710783878        2.5010738923
 H          1.6599814355        2.5926447881        1.1678677698
