  62
        -98.93822665
 C         -1.8882007342       -0.3291438475       -0.0083307087
 C         -2.9831598070       -0.4656347956        0.8824168501
 C         -4.1807178615        0.3369138072        0.5884389474
 C         -4.1744618801        1.1618522176       -0.4723374664
 C         -5.2594239898        2.0994863683       -0.9394227908
 C         -6.7025015334        1.5765375191       -0.9228094571
 C         -6.8531417654        0.0741509450       -1.2034812201
 H         -7.5971725728       -0.0665249129       -1.9897844466
 H         -5.9103398160       -0.3349024695       -1.5706118253
 C         -7.3109412551       -0.7191589660        0.0228921091
 H         -8.1000725015       -0.1576648383        0.5277781220
 H         -7.7459590090       -1.6637490023       -0.3124169093
 C         -6.2146992707       -1.0590432112        1.0319995842
 H         -6.6903414337       -1.5125233821        1.9049061042
 H         -5.5410777740       -1.8088596872        0.6086748673
 C         -5.3551139571        0.1263441379        1.5003149054
 H         -4.9364026344       -0.1278050157        2.4778138605
 H         -5.9514192318        1.0296774170        1.6033145370
 H         -7.1618799613        1.8054518372        0.0377992321
 H         -7.2516336612        2.1443605319       -1.6758606611
 H         -5.2021132229        3.0117955125       -0.3384212334
 H         -4.9799539757        2.3703299755       -1.9605097009
 O         -3.0933409927        1.2779585837       -1.2923924086
 C         -1.9321773129        0.5475211471       -1.0909948090
 O         -1.0478411315        0.7719126521       -1.9406306472
 O         -2.9589819021       -1.2254369176        1.8862639295
 C         -0.6412342452       -1.1483733939        0.2823983737
 C          0.4285463205       -0.2387834070        0.8338762742
 C          0.5495021096       -0.0608839615        2.2083030920
 C          1.5114854654        0.7851478691        2.7305512596
 C          2.3690988455        1.4763198312        1.8926320497
 C          2.2476124644        1.3130266747        0.5192981241
 C          1.2930436926        0.4519264940       -0.0028560702
 H          1.1967596481        0.3482022479       -1.0723388460
 N          3.1195029066        2.0153659126       -0.3426106316
 S          4.7358820909        1.5891867272       -0.2304527336
 O          5.2554881864        2.0527526854        1.0309539558
 O          5.3682940158        2.1182760666       -1.4173139091
 C          4.7246336236       -0.1934471297       -0.2711677511
 C          4.7298806063       -0.8255609274       -1.4984500525
 C          4.6379316451       -2.2071520283       -1.5411990012
 C          4.5279133273       -2.9277725665       -0.3617928751
 C          4.5196751758       -2.2773457157        0.8622375023
 C          4.6185461380       -0.8962096076        0.9122018646
 H          4.6210151086       -0.3544423256        1.8435777358
 H          4.4336827704       -2.8402077557        1.7776781686
 H          4.4482992385       -4.0028902532       -0.3971371901
 H          4.6478773678       -2.7158239664       -2.4920420485
 H          4.8193568938       -0.2280228593       -2.3917170147
 H          2.8242920362        1.9731529927       -1.3082896813
 H          3.1318352651        2.1334088748        2.2784688342
 H          1.5939966680        0.9099201539        3.7996297093
 H         -0.1288206011       -0.5873769086        2.8645582278
 H         -0.9353823305       -1.8427641260        1.0804895548
 C         -0.1684326446       -1.9511104928       -0.9128276475
 C          0.8833814812       -2.9993539375       -0.7101745708
 C         -0.5275324878       -3.4018579605       -1.0145947249
 H         -0.7504943717       -3.8087535678       -1.9895788563
 H         -1.1207890667       -3.8279781014       -0.2188907397
 H          1.6345002475       -3.1291348406       -1.4736862618
 H          1.2494117778       -3.1463710834        0.2944608465
 H         -0.1449358224       -1.3836179953       -1.8343704472
