  62
        -98.93208268
 C         -1.0870658738       -1.6910810423       -0.2807337168
 C         -1.1763768431       -0.2786159702       -0.1752880228
 C         -2.3277254356        0.2583045047        0.5772575089
 C         -3.2077127169       -0.5761951163        1.1498697455
 C         -4.4224785672       -0.2435976772        1.9790855408
 C         -5.3226049038        0.8995679699        1.4869781994
 C         -5.3825845575        1.0744916059       -0.0378461993
 H         -4.9345425426        0.2105381635       -0.5315946485
 H         -6.4286329843        1.1193385904       -0.3467973604
 C         -4.6957161613        2.3545417363       -0.5211003762
 H         -5.0839139894        2.6080978878       -1.5104379139
 H         -4.9648236105        3.1696813483        0.1542115072
 C         -3.1731212216        2.2825814776       -0.6361474240
 H         -2.8937722179        1.6444664154       -1.4783298413
 H         -2.8051802021        3.2863295439       -0.8598286968
 C         -2.4424972342        1.7553309631        0.6090155595
 H         -2.9212347452        2.0978110346        1.5235467214
 H         -1.4178562357        2.1358116985        0.5894663743
 H         -6.3246353181        0.6977812320        1.8694964999
 H         -4.9985326671        1.8364981457        1.9383111795
 H         -4.0889113660       -0.0247012905        2.9978705537
 H         -4.9983099032       -1.1713745366        2.0223801441
 O         -3.0715220266       -1.9284052173        1.0600925216
 C         -2.0328675963       -2.5062754794        0.3574262953
 O         -2.0631576516       -3.7553359803        0.3709283050
 O         -0.3617563500        0.5403975811       -0.6716582987
 C         -0.0093550303       -2.4850602942       -1.0103062016
 C          1.3417636671       -2.4426348201       -0.3324615663
 C          2.0050918088       -3.6270347443       -0.0256456550
 C          3.2502997433       -3.6024708578        0.5759894807
 C          3.8526015266       -2.3989912930        0.8984604461
 C          3.1971109013       -1.2116316490        0.5971645025
 C          1.9601712915       -1.2399077271       -0.0298689973
 H          1.4611599125       -0.3140093506       -0.2553175427
 N          3.7737719245        0.0335053783        0.8897077303
 S          2.8042745088        1.2866266131        1.4379817937
 O          3.7224281263        2.1658983974        2.1382462644
 O          1.7000258578        0.7956681499        2.2317921567
 C          2.2281633858        2.1403780416       -0.0134766920
 C          1.2454550212        3.0914346930        0.1690836585
 C          0.7814032469        3.7984531063       -0.9273684671
 C          1.3080281271        3.5436623710       -2.1833074671
 C          2.3007638237        2.5916163750       -2.3478922095
 C          2.7718682368        1.8827429248       -1.2540623277
 H          3.5320270059        1.1259501486       -1.3565983583
 H          2.7039609253        2.3899017839       -3.3274984966
 H          0.9365523870        4.0853394281       -3.0390783189
 H          0.0049164424        4.5361976023       -0.7996066878
 H          0.8547398725        3.2470130550        1.1630328237
 H          4.6480322138       -0.0019578000        1.3932001658
 H          4.8178235899       -2.3781418304        1.3816175283
 H          3.7527413744       -4.5293400295        0.8084066127
 H          1.5309017201       -4.5715740783       -0.2513402383
 H         -0.3669909482       -3.5231599572       -0.9265159741
 C          0.1644386781       -2.2477470576       -2.5091865204
 C         -0.9042116824       -1.6368184651       -3.3625009445
 C          0.3971734680       -0.9203138052       -3.1607720331
 H          1.0935879631       -0.8839747518       -3.9857898775
 H          0.3933896094       -0.0402836224       -2.5399081377
 H         -1.1195232909       -2.0829053089       -4.3223333093
 H         -1.7750215576       -1.2427341367       -2.8579011804
 H          0.7022330641       -3.0807260130       -2.9550075507
