  62
        -98.94073655
 C          2.5347535764        0.3150267537        0.1815900076
 C          2.5393716733       -0.7935198483        1.0641522939
 C          2.4100053029       -2.1197866396        0.4491281401
 C          2.2802393049       -2.2135593712       -0.8862065569
 C          2.1226107454       -3.4978619686       -1.6468409921
 C          0.6453301808       -3.8545416042       -1.8564506931
 C         -0.2003709311       -3.7890635527       -0.5842311152
 H         -1.2062341640       -4.1235086710       -0.8492247622
 H         -0.2937448017       -2.7475700533       -0.2656190232
 C          0.3264030167       -4.6415186665        0.5785527106
 H          1.0092632425       -5.4038022832        0.2005455728
 H         -0.5182228084       -5.1596857616        1.0377482066
 C          1.0159655662       -3.8499416763        1.6918051582
 H          1.1143637017       -4.5030193631        2.5635409276
 H          0.3828742511       -3.0067516898        1.9837768632
 C          2.4147291201       -3.3121183383        1.3630384825
 H          3.0311561015       -4.1143688301        0.9516635394
 H          2.8700145627       -2.9720286822        2.2979792797
 H          0.5927269529       -4.8601226218       -2.2790421899
 H          0.2194048528       -3.1555805239       -2.5797080700
 H          2.6264216194       -4.2958435313       -1.1044512775
 H          2.5980890306       -3.3766810474       -2.6219904190
 O          2.2547218069       -1.1297642731       -1.7008632185
 C          2.3339330304        0.1590827630       -1.1910993631
 O          2.2272385632        1.0474402164       -2.0572402136
 O          2.6483971544       -0.6768189943        2.3164195057
 C          2.5853216467        1.7032842913        0.7953048665
 C          1.4186844318        2.5178674290        0.2920226729
 C          1.5144001434        3.8187529634       -0.1805997832
 C          0.3809854936        4.4862871980       -0.6157391084
 C         -0.8571521121        3.8734815797       -0.6040681845
 C         -0.9609797702        2.5632460551       -0.1439422131
 C          0.1667162490        1.9146051106        0.3240670670
 H          0.0772745727        0.9063443542        0.7028084021
 N         -2.1914158558        1.8875817371       -0.1902792661
 S         -2.3946250744        0.3803097007        0.5176238882
 O         -2.2122933400        0.4577757593        1.9525159808
 O         -1.5822909209       -0.5818372774       -0.1821775821
 C         -4.1160126385        0.1085942450        0.1440990902
 C         -4.4517448821       -0.4104073440       -1.0917681118
 C         -5.7901714093       -0.5940056802       -1.4007589940
 C         -6.7655036146       -0.2561545767       -0.4741625863
 C         -6.4136018082        0.2608555944        0.7635514798
 C         -5.0766533739        0.4472680472        1.0782715018
 H         -4.7551916271        0.8353819726        2.0313899344
 H         -7.1737747740        0.5186710807        1.4831616278
 H         -7.8063794404       -0.3995243551       -0.7174361933
 H         -6.0666518739       -0.9993053516       -2.3607375909
 H         -3.6574596555       -0.6646613092       -1.7746203748
 H         -3.0008962897        2.4838903690       -0.1024480707
 H         -1.7341922653        4.3912646062       -0.9600090602
 H          0.4672652257        5.4992419886       -0.9789393010
 H          2.4743279257        4.3063880260       -0.2246615875
 H          2.4198972999        1.5237974045        1.8725602642
 C          3.9265264922        2.4116201893        0.6801584300
 C          5.1885523157        1.6464391826        0.4184352473
 C          4.6426069322        2.5702685281       -0.6264488242
 H          5.1667197518        3.4963951110       -0.8124645366
 H          4.1790388041        2.1428209171       -1.5009963431
 H          6.0829491222        1.9355246218        0.9498919711
 H          5.1018504290        0.5819050550        0.2534819533
 H          4.0087669932        3.2371346378        1.3808619103
