  62
        -98.94528523
 C          2.2567038357        0.6424322813       -0.1733223152
 C          1.3771744962        0.9693694242        0.8819811276
 C          0.6066196515        2.2183055535        0.7400337267
 C          0.7417512954        2.9347530657       -0.3909671389
 C         -0.0085603300        4.1854856532       -0.7563662758
 C         -1.4438098745        3.8931561251       -1.2411760852
 C         -2.1491157361        2.7264658382       -0.5483338601
 H         -3.0540439311        2.4993560322       -1.1202348153
 H         -1.5170612516        1.8383938658       -0.6138288386
 C         -2.5633473045        2.9728537273        0.9013326542
 H         -3.3665163605        3.7140691974        0.9140155726
 H         -2.9666440658        2.0353821527        1.2927792850
 C         -1.4604578732        3.4648667614        1.8358387314
 H         -1.1675015740        4.4754365676        1.5634384886
 H         -1.8873627740        3.5225562556        2.8414602946
 C         -0.2362680589        2.5582410623        1.9445097877
 H          0.4457181167        2.9951633243        2.6851246576
 H         -0.5471878402        1.5934692208        2.3563263708
 H         -1.3915110786        3.6458935224       -2.3041153678
 H         -2.0411748316        4.8001338954       -1.1335403533
 H         -0.0084111923        4.8659255267        0.0912469317
 H          0.5418142126        4.6642044757       -1.5690435914
 O          1.5772656177        2.5657865760       -1.4016258970
 C          2.3503950924        1.4236637632       -1.3232317023
 O          3.0738242845        1.2142226533       -2.3199666874
 H          0.8581285628       -1.0476482779       -1.5163803862
 C          0.9951136544       -1.8336671592       -0.7884318008
 C          2.1103019732       -1.8093647803        0.0395374488
 C          2.2807180095       -2.8417330801        0.9527339164
 C          1.3348405788       -3.8481023619        1.0522112487
 C          0.1976185688       -3.8366677205        0.2650780934
 C          0.0251979685       -2.8150201990       -0.6628421472
 N         -1.1142938771       -2.7637299694       -1.4876912754
 S         -2.0312854980       -1.3691546264       -1.5956988616
 O         -3.0970473943       -1.7042188493       -2.5153455419
 O         -1.1983325910       -0.2535589143       -1.9628546192
 C         -2.7299386038       -1.1232013196        0.0287745298
 C         -4.0937801318       -1.2719094256        0.1932375649
 C         -4.6425518958       -1.1082264426        1.4547511958
 C         -3.8198133577       -0.8119849672        2.5309885939
 C         -2.4525496857       -0.6723628099        2.3505680770
 C         -1.8976482058       -0.8237484677        1.0887815331
 H         -0.8368640614       -0.7065101975        0.9317301642
 H         -1.8028030020       -0.4458438895        3.1813846201
 H         -4.2437325099       -0.6873578513        3.5148807972
 H         -5.7062354727       -1.2143504342        1.5945051091
 H         -4.6919799684       -1.5071681327       -0.6720220204
 H         -1.7235777262       -3.5650123320       -1.4005833667
 H         -0.5507624580       -4.6082469019        0.3641735831
 H          1.4764349018       -4.6434329175        1.7680090795
 H          3.1474995451       -2.8535880350        1.5928904949
 C          3.0608494786       -0.6447817055       -0.1077636559
 H          3.5712315249       -0.7354423945       -1.0780671305
 C          4.1003076004       -0.5680438326        0.9906746217
 C          5.3817035274       -1.3356815670        0.8729379398
 C          5.3842830505        0.1550796311        0.7212077309
 H          5.8138283887        0.7552562843        1.5091528601
 H          5.5189559064        0.5717605883       -0.2667587931
 H          5.8148229610       -1.7576866245        1.7672278080
 H          5.5269852810       -1.9339809820       -0.0138933344
 H          3.6581086254       -0.4528028932        1.9734252661
 O          1.2286460679        0.2422219938        1.9010530267
