  62
        -98.93610184
 C          1.7823654587        1.2996385379        0.2058101264
 C          2.1602017268        0.1849447343       -0.5766091645
 C          3.5381003853       -0.3172083386       -0.3963858287
 C          4.3367674997        0.2588136480        0.5188564717
 C          5.7599393041       -0.0782040912        0.8851567761
 C          6.1011471880       -1.5689144945        1.0333896965
 C          6.9956626820       -2.1024022856       -0.0869432482
 H          7.7437443486       -1.3433932419       -0.3252586515
 H          7.5297714929       -2.9813194506        0.2810127874
 C          6.2634648096       -2.5084895679       -1.3647671137
 H          5.7054706146       -3.4299515737       -1.1840300840
 H          7.0189649732       -2.7302331215       -2.1222721100
 C          5.2983394831       -1.4622646081       -1.9258310452
 H          5.7298190754       -0.4649415657       -1.8495630880
 H          5.1634090704       -1.6701560425       -2.9895011533
 C          3.9117735838       -1.4875572350       -1.2655211985
 H          3.1386175508       -1.5162318651       -2.0395593751
 H          3.7897796071       -2.4086361280       -0.6878507381
 H          5.1855536019       -2.1547750771        1.0996514459
 H          6.6334276699       -1.6959203371        1.9775391205
 H          6.4256221344        0.3828881676        0.1511928886
 H          5.9366251051        0.4381430599        1.8315087959
 O          3.9244128086        1.3193549930        1.2696965948
 C          2.6662052542        1.8674131519        1.1294148837
 O          2.4499168123        2.8464593132        1.8706941112
 H         -0.4869536640       -0.5384056784       -0.3510243852
 C         -0.9883749918       -0.0873412704        0.4923158779
 C         -0.6275989725        1.1919809080        0.8907507038
 C         -1.2728367253        1.7530808458        1.9861712220
 C         -2.2531059335        1.0495191967        2.6649937167
 C         -2.6104388329       -0.2253007351        2.2642808768
 C         -1.9656840411       -0.7957240983        1.1745604478
 N         -2.3362594543       -2.0883386809        0.7460040114
 S         -3.9465024097       -2.2495887927        0.3051397612
 O         -4.7537964682       -2.3701105868        1.4933100559
 O         -3.9935900299       -3.3683013396       -0.6093147046
 C         -4.3229075874       -0.7226216494       -0.5362298604
 C         -3.7678395182       -0.5154845433       -1.7833557762
 C         -3.9802844376        0.6968992636       -2.4182345358
 C         -4.7329146083        1.6797761501       -1.7938967908
 C         -5.2833445899        1.4560752863       -0.5417675924
 C         -5.0758593834        0.2444291483        0.0975868832
 H         -5.4848683942        0.0292671143        1.0709474062
 H         -5.8680988073        2.2226814392       -0.0596921793
 H         -4.8917030091        2.6257757540       -2.2873088912
 H         -3.5536897974        0.8710823412       -3.3932151802
 H         -3.1894774190       -1.3029285645       -2.2401031271
 H         -1.7409729945       -2.4363653544        0.0071039694
 H         -3.3765790327       -0.7870678543        2.7740744562
 H         -2.7445514009        1.4986453877        3.5144728140
 H         -0.9929223048        2.7445862411        2.3111316241
 C          0.4174024784        1.9666532937        0.1241694798
 H          0.5395377516        2.9397199157        0.6177555408
 C         -0.0444824222        2.2065563601       -1.3012841660
 C         -1.1049926365        3.2332448287       -1.5547402908
 C          0.3081392776        3.4934413099       -1.9812012243
 H          0.5451159419        3.4709340142       -3.0343256404
 H          0.8876289352        4.2126980458       -1.4204880974
 H         -1.8434765705        3.0313917548       -2.3145387235
 H         -1.4859339455        3.7776882181       -0.7042954563
 H         -0.0537212376        1.3106288107       -1.9070656275
 O          1.4023221906       -0.3902807758       -1.4053435141
