  62
        -98.94740500
 C          2.5357770226        0.2149681594        0.0007605607
 C          2.2765260047        1.2486973480       -0.9290073091
 C          1.7129759134        2.4836014947       -0.3741044942
 C          1.4816054910        2.5749893520        0.9483007416
 C          0.9294591647        3.7742297521        1.6707878217
 C         -0.6024364361        3.8602689060        1.6432443468
 C         -1.2000711949        4.2889547276        0.3027166916
 H         -2.2454315476        4.5467389392        0.4833752776
 H         -0.6964496655        5.1896518492       -0.0507040317
 C         -1.1434810854        3.2038721809       -0.7809331701
 H         -0.9816309222        2.2279021405       -0.3166234357
 H         -2.1073732284        3.1431622752       -1.2929727985
 C         -0.0806435537        3.4223493308       -1.8580914289
 H         -0.3316654708        4.3079112102       -2.4474472489
 H         -0.1015834544        2.5546931657       -2.5233726827
 C          1.3491813422        3.5832428544       -1.3259166128
 H          2.0366730644        3.5274782096       -2.1740275550
 H          1.4633357165        4.5550466740       -0.8452298808
 H         -1.0090821738        2.8850309125        1.9227364549
 H         -0.9042006089        4.5841663569        2.4039965169
 H          1.2518873120        3.6837298251        2.7103268947
 H          1.3562152341        4.6857662804        1.2508691662
 O          1.7595058284        1.5638530938        1.8126480016
 C          2.2463133157        0.3488904976        1.3587315577
 O          2.4008558192       -0.5074021861        2.2517456219
 O          2.5122236999        1.1453537631       -2.1647625827
 C          3.0276217244       -1.1312103016       -0.5031962182
 C          1.9869509266       -2.1718238634       -0.1675674216
 C          2.2682599144       -3.3924313052        0.4305859456
 C          1.2391050367       -4.2521166355        0.7768301420
 C         -0.0812065083       -3.9085047244        0.5539996173
 C         -0.3707130226       -2.6979757641       -0.0674246195
 C          0.6624479418       -1.8603029333       -0.4478564737
 H          0.4287193293       -0.9233868696       -0.9330711227
 N         -1.6975675191       -2.3103780272       -0.3267356289
 S         -2.0395640639       -0.6543731805       -0.3260854970
 O         -1.7203099350       -0.1272227842       -1.6289899034
 O         -1.4223655241       -0.0078594107        0.8102091284
 C         -3.8108886338       -0.6967149179       -0.1258005185
 C         -4.3628485998       -0.4628179605        1.1190366168
 C         -5.7398055095       -0.5299926981        1.2656204719
 C         -6.5362147112       -0.8319609892        0.1713443209
 C         -5.9677507140       -1.0627665269       -1.0728077882
 C         -4.5922538019       -0.9950247923       -1.2264143596
 H         -4.1049397101       -1.1558735002       -2.1738174280
 H         -6.5901693921       -1.2940822093       -1.9219937393
 H         -7.6070484315       -0.8848287364        0.2882752097
 H         -6.1839511969       -0.3467894576        2.2307280026
 H         -3.7032538837       -0.2255983214        1.9386222270
 H         -2.3727423473       -2.8358439716        0.2117619745
 H         -0.8820077325       -4.5654986809        0.8575066524
 H          1.4691261009       -5.1946131635        1.2503235401
 H          3.2894808098       -3.6627293531        0.6438051491
 H          3.0851261681       -1.0334533048       -1.5979422358
 C          4.4053479163       -1.4490088470        0.0360921702
 C          5.3340136316       -2.3332297897       -0.7401227935
 C          5.6037075545       -0.8624811852       -0.6457597816
 H          6.4286115478       -0.5245068798       -0.0368972224
 H          5.4253065917       -0.2504397138       -1.5179193545
 H          5.9790459240       -3.0066056309       -0.1962888147
 H          4.9803632570       -2.7231310277       -1.6825500570
 H          4.4227297590       -1.5071579021        1.1186034798
