  62
        -98.93631882
 C          1.3960224169        1.3562038706        0.3236847329
 C          2.1371796122        0.9070956211       -0.7927436117
 C          3.2063454311       -0.0771696340       -0.5234760493
 C          3.4164322604       -0.4774034967        0.7445138334
 C          4.4058897136       -1.4996177543        1.2346642897
 C          3.9394368226       -2.9431527566        0.9703112894
 C          3.2616813011       -3.1676803710       -0.3801719568
 H          2.8364481969       -4.1750570589       -0.3774525514
 H          2.4304782030       -2.4672809508       -0.4857129783
 C          4.1770997395       -3.0525802069       -1.5969658208
 H          4.9418621578       -3.8309265023       -1.5411859204
 H          3.5689498445       -3.2481387473       -2.4841805550
 C          4.8778416236       -1.7063962253       -1.7813870335
 H          5.6772496602       -1.5881303674       -1.0549361878
 H          5.3532111772       -1.7203623133       -2.7667717949
 C          3.9568609353       -0.4888718203       -1.7667533577
 H          4.5412840413        0.3884828123       -2.0707994050
 H          3.1932143604       -0.6106418249       -2.5436516500
 H          3.2196923750       -3.2106358078        1.7476157754
 H          4.7982732791       -3.6094567433        1.0632508329
 H          5.3790943906       -1.3136894653        0.7900412862
 H          4.5005072777       -1.3573700851        2.3132431564
 O          2.6735141403       -0.0169826975        1.7904870414
 C          1.6528579699        0.8985972865        1.6153082333
 O          1.0558926857        1.2182217971        2.6615797673
 H         -0.4283355319       -0.2165952871       -0.2465085666
 C         -1.0520203860        0.4562088794       -0.8230922227
 C         -0.8094664511        1.8217513508       -0.7674253331
 C         -1.6322595653        2.6632280062       -1.5082103074
 C         -2.6621496377        2.1500750307       -2.2777481068
 C         -2.8972091117        0.7874615066       -2.3292467805
 C         -2.0759748686       -0.0605016261       -1.6020407803
 N         -2.3399085690       -1.4555523333       -1.6167094714
 S         -3.5649923397       -1.8871854524       -0.5532496927
 O         -3.5589504709       -3.3310900438       -0.4964337601
 O         -4.7867715290       -1.2652366810       -0.9926544092
 C         -3.0408170506       -1.1981149814        1.0053783037
 C         -2.2080762804       -1.9449597609        1.8148334842
 C         -1.6875570397       -1.3636334934        2.9595425970
 C         -1.9929886886       -0.0462878391        3.2651047858
 C         -2.8311446024        0.6893749322        2.4419218980
 C         -3.3595791322        0.1127451444        1.2981686416
 H         -4.0096183554        0.6544720514        0.6301582860
 H         -3.0621401830        1.7149517775        2.6811101882
 H         -1.5604176712        0.4125734697        4.1396651803
 H         -1.0319164289       -1.9297617517        3.6018998168
 H         -1.9883062434       -2.9643278593        1.5378462550
 H         -1.5224927965       -2.0086557334       -1.3975562003
 H         -3.7053044587        0.3690775261       -2.9063674478
 H         -3.2915401316        2.8200608458       -2.8431971183
 H         -1.4673758612        3.7280538369       -1.4777906355
 C          0.2710440615        2.3543706709        0.1433344015
 H         -0.1749622089        2.4859737440        1.1411623495
 C          0.8235973416        3.6885013783       -0.3214442925
 C          0.2260282159        4.9740698911        0.1641132111
 C          1.5708519223        4.5386961564        0.6605094973
 H          2.4472771480        5.0705255434        0.3218672914
 H          1.6486897777        4.1701449303        1.6733114364
 H          0.1802834131        5.8107653359       -0.5168289766
 H         -0.6055573480        4.9148053532        0.8500049372
 H          1.2007337062        3.6488585134       -1.3368541047
 O          1.9133784896        1.2931599319       -1.9703914169
