  62
        -98.94565130
 C         -1.1220088738       -1.4498610402        0.7477251706
 C         -2.0122688655       -1.4216179278       -0.3523763243
 C         -2.9981709065       -0.3313640683       -0.3482358990
 C         -2.9810264216        0.5718840215        0.6487956120
 C         -3.8977064859        1.7564684487        0.7437446690
 C         -3.2951732530        2.9925718350        0.0620028829
 C         -2.7469295371        2.7262932412       -1.3393625613
 H         -2.3710586132        3.6754216678       -1.7264422748
 H         -1.8933705325        2.0480200229       -1.2662117124
 C         -3.7735339612        2.1496874321       -2.3241199540
 H         -4.7837474152        2.3289258129       -1.9538785906
 H         -3.6795509964        2.6753158138       -3.2767049355
 C         -3.6018004894        0.6590798139       -2.6203631682
 H         -2.5652698323        0.4562905701       -2.9020452475
 H         -4.2292215039        0.4082962525       -3.4799959854
 C         -3.9849975125       -0.2932654066       -1.4809710854
 H         -4.9840410060       -0.0472645184       -1.1152478922
 H         -4.0086458495       -1.3073332111       -1.8907074430
 H         -4.0630576700        3.7666833095        0.0131486109
 H         -2.4750280598        3.3588345224        0.6807235704
 H         -4.8518700397        1.5037259978        0.2849123596
 H         -4.0617425051        1.9788739886        1.7993972933
 O         -2.0923526952        0.5266716992        1.6748188985
 C         -1.1437111084       -0.4799285171        1.7500305455
 O         -0.3894651536       -0.4042461511        2.7408328635
 H          1.2847723045       -0.3094039531        0.2705819111
 C          1.5022831465       -1.0750525849       -0.4608040982
 C          0.9037157385       -2.3230833284       -0.3329974409
 C          1.1927908927       -3.2996338984       -1.2757308616
 C          2.0498009238       -3.0208506039       -2.3269624387
 C          2.6488010492       -1.7805471736       -2.4459218393
 C          2.3753291117       -0.7992472563       -1.4989846945
 N          2.9569940726        0.4759692208       -1.5808414935
 S          3.5265918721        1.1949138490       -0.1777464642
 O          4.5187412688        2.1433800333       -0.6404805427
 O          3.9905182569        0.2061144962        0.7672607704
 C          2.1510250158        2.1070605725        0.4864156087
 C          1.7858671724        1.9249686022        1.8047787592
 C          0.7630238568        2.6971960108        2.3313261872
 C          0.1318578713        3.6381745660        1.5340852980
 C          0.5035059255        3.8035219247        0.2077372158
 C          1.5240146400        3.0330524718       -0.3243129348
 H          1.8477898312        3.1390534508       -1.3463830099
 H          0.0029890063        4.5323120873       -0.4094767044
 H         -0.6514549851        4.2496411070        1.9548889912
 H          0.4606500525        2.5484913969        3.3553374965
 H          2.2937593751        1.1774178746        2.3936129006
 H          3.6049409135        0.5964897171       -2.3462185958
 H          3.3212276068       -1.5682195728       -3.2633799200
 H          2.2594102515       -3.7842938971       -3.0608903839
 H          0.7401104200       -4.2739909413       -1.1957377418
 C         -0.0444906071       -2.5180000099        0.8258531283
 H          0.5151827726       -2.3205135350        1.7519878850
 C         -0.6484631092       -3.9029128936        0.9060489656
 C          0.1372776928       -5.0253522541        1.5124294891
 C         -1.0350112890       -4.4486090771        2.2464081441
 H         -1.9369959813       -5.0369836247        2.3230002765
 H         -0.8443680511       -3.8279239291        3.1100889814
 H          1.1270564707       -4.7998988479        1.8805953709
 H          0.0395316910       -6.0131276360        1.0880980965
 H         -1.3000933923       -4.1259959848        0.0698047191
 O         -1.9940343871       -2.2628534661       -1.2883725590
