  62
        -98.94409209
 C          0.7969851086        1.2015420407        0.2954724097
 C          1.5006920488        0.3572347009        1.1908397897
 C          2.4082531593       -0.6223202086        0.5795904498
 C          2.4497105696       -0.7298186685       -0.7603551402
 C          3.3918177601       -1.6159037680       -1.5212886502
 C          4.6908886998       -0.8705230874       -1.8612529399
 C          5.3244478793       -0.1545954473       -0.6680988997
 H          4.6651443989        0.6547295924       -0.3456455998
 H          6.2492264192        0.3080013032       -1.0197769896
 C          5.6317780995       -1.0645046772        0.5296489302
 H          6.6329956794       -0.8315713068        0.8982601704
 H          5.6392808600       -2.1072435872        0.2105704001
 C          4.6741753193       -0.9033604577        1.7121017601
 H          4.5974282888        0.1536585522        1.9803569802
 H          5.1030699294       -1.4266137876        2.5709486101
 C          3.2571143095       -1.4521730383        1.5005655198
 H          2.7483636594       -1.4415347186        2.4690308198
 H          3.3144638800       -2.4842165883        1.1500017798
 H          4.4724739996       -0.1252316375       -2.6294843199
 H          5.4022229902       -1.5870914371       -2.2758249899
 H          3.6171792104       -2.4985956080       -0.9266393402
 H          2.9068854003       -1.9197238082       -2.4498456903
 O          1.6671284994        0.0107333112       -1.5829854903
 C          0.8395751089        1.0094754908       -1.0865884403
 O          0.2126364387        1.6249985506       -1.9677096004
 H         -1.6814281510        0.2032372296        0.6560373292
 C         -2.1281948913        1.0710735195        0.1930778092
 C         -1.4387489419        2.2771044598        0.2204001194
 C         -2.0242553023        3.3906664796       -0.3658089705
 C         -3.2654474721        3.2876457091       -0.9701596907
 C         -3.9422715416        2.0833006388       -1.0056018609
 C         -3.3615856912        0.9601787690       -0.4247360810
 N         -3.9914187407       -0.2867870213       -0.4935881512
 S         -3.6425996403       -1.5274204812        0.5543557488
 O         -4.6634379398       -2.5170686516        0.2812130286
 O         -3.5660590807       -1.0723578713        1.9237333288
 C         -2.0667664699       -2.1625848005        0.0225977490
 C         -1.1521695699       -2.5631988802        0.9761700491
 C          0.0495305004       -3.1150180596        0.5645155892
 C          0.3154007107       -3.2545418594       -0.7883512808
 C         -0.6084017694       -2.8379909997       -1.7339242609
 C         -1.8145671197       -2.2901963103       -1.3283419710
 H         -2.5539175597       -1.9572474305       -2.0378280411
 H         -0.3927646492       -2.9375704895       -2.7856292308
 H          1.2483709909       -3.6907692890       -1.1071381707
 H          0.7717071904       -3.4283786794        1.3010600793
 H         -1.3914874601       -2.4243908104        2.0190018991
 H         -4.9300776706       -0.3034937517       -0.8600340713
 H         -4.9043001815        2.0041326184       -1.4881680611
 H         -3.7100816224        4.1591560389       -1.4264731307
 H         -1.5029982427        4.3335966098       -0.3718607704
 C         -0.0880899220        2.2817798803        0.8905331097
 H         -0.2360105220        1.9684707401        1.9386375196
 C          0.5615826774        3.6573285906        0.9362967499
 C          2.0525693374        3.8091389312        0.9559488001
 C          1.2717477774        4.2413257610       -0.2468302800
 H          1.1690366369        5.2998657309       -0.4359283099
 H          1.3249177778        3.6403626211       -1.1409294400
 H          2.6485051378        2.9107892115        0.8838090601
 H          2.4823421169        4.5668712413        1.5939731302
 H          0.0043556370        4.3490167703        1.5607865098
 O          1.3838225786        0.4284237108        2.4441058997
