  62
        -98.93268361
 C         -2.2535610699       -0.8283590804       -0.2285993401
 C         -3.5105855099       -1.1268630801        0.3496173899
 C         -4.6539061098       -0.3572825100       -0.1575542602
 C         -4.4629870097        0.5516491698       -1.1306547904
 C         -5.5209443796        1.3896330998       -1.7987310406
 C         -6.2296484695        2.4268523300       -0.9060523208
 C         -7.5417046295        1.9335900103       -0.2837010807
 H         -8.2696469994        2.7470097204       -0.3099427508
 H         -7.9449168996        1.1325225003       -0.9043249805
 C         -7.4550453996        1.4595404206        1.1701673394
 H         -7.4170255595        2.3311349707        1.8275866892
 H         -8.3735609597        0.9149960607        1.3992805895
 C         -6.2565951497        0.5750127105        1.5149011496
 H         -6.4207121598        0.1500928607        2.5071986696
 H         -5.3557790096        1.1892573704        1.5878067595
 C         -5.9831147799       -0.5610378797        0.5097590598
 H         -5.9257885600       -1.5168999097        1.0341402999
 H         -6.7795472899       -0.6212639098       -0.2302173302
 H         -6.4553874493        3.2863632400       -1.5391854409
 H         -5.5434891294        2.7683154601       -0.1314189108
 H         -6.2652834997        0.7255999998       -2.2437583605
 H         -5.0084592695        1.9091143496       -2.6108787907
 O         -3.2376702197        0.7984526695       -1.6700605004
 C         -2.1025566198        0.1399353094       -1.2210008603
 O         -1.0503929797        0.4985763992       -1.7829971704
 O         -3.6701371501       -1.9962306699        1.2482210201
 C         -1.0242032200       -1.5610319604        0.2799899900
 C         -0.0908744199       -0.5652901504        0.9231043098
 C         -0.5447660098        0.1439326398        2.0335613897
 C          0.2574811803        1.0856881898        2.6463593695
 C          1.5316478404        1.3373447296        2.1678654095
 C          1.9914510203        0.6408406593        1.0567422896
 C          1.1838981302       -0.3098205207        0.4458801198
 H          1.5660472501       -0.8348272609       -0.4130346001
 N          3.2640381303        0.9103538091        0.5293016396
 S          4.1498996002       -0.3298795712       -0.1903195502
 O          3.6811612802       -0.5367683514       -1.5369786401
 O          4.1628058800       -1.4939089710        0.6679431200
 C          5.7620886203        0.4318938686       -0.2278659703
 C          6.0112225504        1.3882162284       -1.1944926805
 C          7.2470793905        2.0144605482       -1.2145177206
 C          8.2081860504        1.6759435083       -0.2731600805
 C          7.9447096803        0.7125712185        0.6887439097
 C          6.7095976502        0.0835979586        0.7157766998
 H          6.4617138401       -0.6748063112        1.4408123599
 H          8.6951329703        0.4496481285        1.4166739097
 H          9.1694387405        2.1647599281       -0.2915409306
 H          7.4558818806        2.7622577281       -1.9625005407
 H          5.2363096904        1.6115671184       -1.9094602805
 H          3.8385029704        1.4642756891        1.1497715895
 H          2.1599690805        2.0746759996        2.6439704294
 H         -0.1076514396        1.6258025600        3.5070118094
 H         -1.5407125298       -0.0559420100        2.4054405597
 H         -1.3927533601       -2.2390274202        1.0639823001
 C         -0.3815289301       -2.3866333507       -0.8125365598
 C          0.5206424798       -3.5261986808       -0.4478229796
 C         -0.8332524503       -3.7983566607       -1.0296450396
 H         -0.8953691003       -4.1690880509       -2.0417030595
 H         -1.6028814703       -4.1804089605       -0.3749617595
 H          1.3954075897       -3.7041127710       -1.0555085996
 H          0.6741426297       -3.7230698206        0.6026828704
 H         -0.1302828600       -1.8029503509       -1.6914029899
