  62
        -98.94915490
 C         -2.0889896444       -0.3950853861        0.5603882949
 C         -1.3919511973        0.5786156129        1.3149368383
 C         -1.6331940084        1.9798332356        0.9529135084
 C         -2.4725564260        2.2596616978       -0.0599786961
 C         -2.8174999011        3.6412545881       -0.5349727472
 C         -1.9006338290        4.0991918260       -1.6762337001
 C         -0.4105259664        3.9098677071       -1.3915688575
 H          0.1374495312        4.3241945863       -2.2415032779
 H         -0.1770325530        2.8426271246       -1.3588651459
 C          0.0812891648        4.5723951098       -0.0971205047
 H         -0.6278344385        5.3363979296        0.2252977095
 H          1.0293122271        5.0736046484       -0.3041345218
 C          0.3381409605        3.5911188748        1.0481998315
 H          0.9378315709        4.0997673148        1.8081657609
 H          0.9271136853        2.7532394987        0.6655947473
 C         -0.9122392753        3.0351403347        1.7433373633
 H         -1.5863420636        3.8555519680        1.9994705469
 H         -0.5936331737        2.5507825262        2.6712111315
 H         -2.1029028634        5.1535867414       -1.8765531503
 H         -2.1506253443        3.5282949762       -2.5735832964
 H         -2.7440107926        4.3329465124        0.3022871515
 H         -3.8482737359        3.6292121562       -0.8945531311
 O         -3.0985259601        1.2994932275       -0.7862589003
 C         -2.8941852183       -0.0478676324       -0.5240046723
 O         -3.4911717946       -0.8123241614       -1.3064997568
 O         -0.6085326365        0.2882568308        2.2603164818
 C         -1.8453257239       -1.8659499932        0.8666749698
 C         -1.0118841241       -2.4232830487       -0.2609671425
 C         -1.4365740066       -3.4080680584       -1.1410992924
 C         -0.6347263430       -3.7740787538       -2.2097315731
 C          0.5807301099       -3.1546275287       -2.4341197465
 C          1.0198949844       -2.1743792386       -1.5486304918
 C          0.2390225256       -1.8489485469       -0.4542941526
 H          0.5785272915       -1.0934908706        0.2352923081
 N          2.2440662894       -1.5215423142       -1.7406043872
 S          2.4905290710        0.0650804713       -1.2527477496
 O          1.2558909602        0.8044743050       -1.1532517170
 O          3.4638655065        0.5751193343       -2.1974545871
 C          3.2924823030       -0.1149952943        0.3279297521
 C          4.5985524372       -0.5687625894        0.3100941281
 C          5.2703428556       -0.7405631460        1.5082166847
 C          4.6283279756       -0.4559313135        2.7046269176
 C          3.3204099208        0.0007931501        2.7066746922
 C          2.6415687867        0.1742149915        1.5093190171
 H          1.6186145729        0.5193136543        1.5004812355
 H          2.8119621699        0.2220398259        3.6315559563
 H          5.1490069236       -0.5892637022        3.6398465278
 H          6.2886125637       -1.0947331807        1.5072216606
 H          5.0626131144       -0.7638375353       -0.6423736773
 H          2.7010720251       -1.7192844440       -2.6180535578
 H          1.1847044821       -3.4192877543       -3.2888482972
 H         -0.9741934508       -4.5379641809       -2.8931037056
 H         -2.3992425757       -3.8726549647       -1.0058913577
 H         -1.2349413542       -1.8763628365        1.7810775927
 C         -3.1312315732       -2.6175623135        1.1254240172
 C         -3.0916439049       -3.9150184947        1.8748398024
 C         -3.6643846077       -2.6920160272        2.5237830359
 H         -4.7325595835       -2.6359425330        2.6703313181
 H         -3.0917637029       -2.2092360427        3.3021371468
 H         -3.7676270890       -4.7024595446        1.5783363672
 H         -2.1284594423       -4.2649644216        2.2138572090
 H         -3.8516921925       -2.5114338825        0.3233141983
