  62
        -98.93437537
 C         -1.6961035940       -0.0229139658       -0.9051761067
 C         -2.9058299027        0.7072376383       -0.8262485816
 C         -4.1183424727       -0.0671976072       -0.5000717691
 C         -4.0275311936       -1.3884222303       -0.2769393529
 C         -5.1287970751       -2.3694940132        0.0386363133
 C         -6.2046304449       -1.9318181530        1.0420932210
 C         -5.7120629891       -0.9983338098        2.1575667309
 H         -6.0317495189       -1.3983785755        3.1216481231
 H         -4.6211975643       -0.9652539962        2.1643306467
 C         -6.2641993237        0.4238417443        2.0334558638
 H         -6.1937427186        0.9143194891        3.0073721328
 H         -7.3233301699        0.3672197981        1.7725183516
 C         -5.5475147730        1.3188409626        1.0233478197
 H         -4.5493022741        1.5685388133        1.3930016476
 H         -6.1045517788        2.2559958041        0.9491948543
 C         -5.3877797015        0.7276481609       -0.3868587019
 H         -6.2570766406        0.1384827235       -0.6682109353
 H         -5.2881904653        1.5590538848       -1.0898404120
 H         -7.0235789424       -1.4483259248        0.5112858424
 H         -6.6121955584       -2.8428367883        1.4837025118
 H         -5.6112371201       -2.6522790021       -0.9015803685
 H         -4.6162893230       -3.2575747494        0.4161288853
 O         -2.8390671575       -2.0519590738       -0.3476066470
 C         -1.6622670067       -1.3990690622       -0.6596902843
 O         -0.6609811233       -2.1424230763       -0.6927629770
 O         -3.0038681650        1.9479951287       -1.0209745758
 C         -0.3526808507        0.6004725702       -1.2446743366
 C          0.2951289974        1.2483304226       -0.0441750402
 C         -0.3320267378        2.2658499288        0.6666602388
 C          0.3030567145        2.8583411768        1.7425164318
 C          1.5794608312        2.4704237344        2.1113633399
 C          2.2166988176        1.4586740507        1.4036388126
 C          1.5638214146        0.8445736250        0.3443871452
 H          2.0556055264        0.0446379229       -0.1876932966
 N          3.5092001034        1.0380693964        1.7473231301
 S          4.6084013712        0.6626614203        0.5410295858
 O          5.9026325832        0.8396779348        1.1641876581
 O          4.3668082352        1.4337496834       -0.6555473645
 C          4.3550936634       -1.0700850510        0.2251326993
 C          4.1289033084       -1.5047645283       -1.0654328377
 C          3.9531952409       -2.8597560540       -1.2963435166
 C          4.0085538547       -3.7519723143       -0.2371241271
 C          4.2412331482       -3.3000840027        1.0530909203
 C          4.4179041049       -1.9466695849        1.2899494947
 H          4.6042007381       -1.5584725909        2.2774066079
 H          4.2829839931       -3.9986009929        1.8732995583
 H          3.8680974023       -4.8056660072       -0.4197050057
 H          3.7694882166       -3.2125099745       -2.2986233960
 H          4.0886482269       -0.7762907680       -1.8605030607
 H          3.9392203945        1.5544164485        2.5008256080
 H          2.0799226443        2.9467420019        2.9409648155
 H         -0.1949546793        3.6432062722        2.2919077654
 H         -1.3177167271        2.5863706169        0.3664835642
 H          0.2906604825       -0.2362872058       -1.5496531084
 C         -0.4119194879        1.5954950679       -2.3897302920
 C          0.8703674022        2.0163971232       -3.0406254440
 C         -0.0936613520        1.1381989853       -3.7795462069
 H         -0.6504596426        1.5619074366       -4.6019416464
 H          0.1655089254        0.0983670040       -3.9174192851
 H          0.9727780088        3.0441331326       -3.3544938767
 H          1.7891658175        1.5837903922       -2.6712941003
 H         -1.1850872349        2.3426179445       -2.2702245995
