  62
        -98.95212289
 C         -2.3580078851       -0.3402071619        0.0413242997
 C         -1.5162051142        0.2303416280       -0.9412581194
 C         -1.5204511358        1.6963547661       -1.0221946063
 C         -2.3006153783        2.3982833621       -0.1804973457
 C         -2.4161383746        3.8949488221       -0.1617866123
 C         -1.4279807502        4.5366260375        0.8202178085
 C          0.0120705019        4.0479503521        0.6632817074
 H          0.6255015783        4.6160282010        1.3670743275
 H          0.0775873067        3.0001941983        0.9660579519
 C          0.5876385699        4.1988627741       -0.7516902641
 H          1.6040276260        4.5904479707       -0.6714311561
 H          0.0022333479        4.9248156990       -1.3181318560
 C          0.6775599082        2.8862840306       -1.5326278745
 H          1.3375669758        3.0419791434       -2.3905404549
 H          1.1363899358        2.1265211559       -0.8947693087
 C         -0.6506270236        2.3351361745       -2.0679820337
 H         -1.1931164459        3.1260301349       -2.5911069847
 H         -0.4185728850        1.5437868290       -2.7867490424
 H         -1.7542345776        4.3129907251        1.8387170192
 H         -1.4631336422        5.6195071699        0.6824937500
 H         -2.2416720145        4.2757284561       -1.1665359741
 H         -3.4324351616        4.1528086250        0.1427309309
 O         -3.0787002476        1.8164140630        0.7687849592
 C         -3.1131322715        0.4393515648        0.9150228900
 O         -3.8500120553        0.0359011860        1.8395642653
 H         -0.4352265722       -0.8641268465        1.6485682329
 C         -0.1382149613       -1.7697143462        1.1396490023
 C         -1.0487845990       -2.4327496331        0.3271855276
 C         -0.6438080742       -3.6039167797       -0.3017158274
 C          0.6478985475       -4.0755894026       -0.1429195135
 C          1.5666218001       -3.3812420307        0.6227099096
 C          1.1674628988       -2.2147240673        1.2645471150
 N          2.0682375591       -1.4561976212        2.0414079616
 S          2.3898074368        0.1075422205        1.5279881764
 O          3.3609242830        0.6184821325        2.4720606472
 O          1.1616283189        0.8484663445        1.4130405610
 C          3.1733095879       -0.0971026836       -0.0623273145
 C          2.4078972316       -0.4165958762       -1.1661004839
 C          3.0480687361       -0.6316166616       -2.3777193139
 C          4.4272784048       -0.5283039781       -2.4657178076
 C          5.1806346748       -0.2082395749       -1.3460145202
 C          4.5499260005        0.0051552337       -0.1315752394
 H          5.0917265518        0.2591603055        0.7652532568
 H          6.2533959977       -0.1259994412       -1.4151249121
 H          4.9165604916       -0.6971796685       -3.4120857001
 H          2.4538210124       -0.8794343376       -3.2425555012
 H          1.3337530578       -0.4878477574       -1.0863510571
 H          2.9436332971       -1.9282914761        2.2237095206
 H          2.5822872941       -3.7332918107        0.7238338058
 H          0.9483153682       -4.9861332877       -0.6384097308
 H         -1.3390313744       -4.1450156239       -0.9225299547
 C         -2.4334631839       -1.8500576644        0.1827132344
 H         -2.9900134133       -2.0434227149        1.1119453847
 C         -3.2087165804       -2.4348673442       -0.9816267271
 C         -4.0402911909       -3.6681221285       -0.7994495826
 C         -4.7035656119       -2.3359599797       -0.9742341867
 H         -5.2118251033       -2.1275758209       -1.9037078348
 H         -5.1622910187       -1.8715515285       -0.1130866765
 H         -4.0985415966       -4.3764233884       -1.6121553648
 H         -4.0616453084       -4.1172614758        0.1820009142
 H         -2.7033383793       -2.2907983070       -1.9298984851
 O         -0.8076253244       -0.4554105460       -1.7253239871
