  62
        -98.94455594
 C          2.6193934440        1.2253748254        0.1380633835
 C          2.6365670383        0.2804962095       -0.9163457790
 C          3.4368656249       -0.9312866325       -0.6821292386
 C          4.1014785391       -1.0777161580        0.4776169261
 C          4.8990392764       -2.2874087908        0.8672885829
 C          4.0334350560       -3.3014865610        1.6281402990
 C          2.7036466839       -3.6197321940        0.9436010277
 H          2.1961892332       -4.3719186678        1.5517268448
 H          2.0705262652       -2.7286130520        0.9503285981
 C          2.8365331803       -4.1343578400       -0.4965215384
 H          3.8532963799       -4.4881049343       -0.6718266801
 H          2.1677104763       -4.9880731840       -0.6249415716
 C          2.4625894823       -3.1133163218       -1.5727988002
 H          2.3756279475       -3.6415863194       -2.5263694283
 H          1.4801771543       -2.6882180839       -1.3462849784
 C          3.4579072963       -1.9632467851       -1.7745363450
 H          4.4636949267       -2.3671753565       -1.9053069958
 H          3.1762461405       -1.4375390697       -2.6915660499
 H          4.6080683112       -4.2210881502        1.7522490653
 H          3.8176423942       -2.8979892609        2.6200346257
 H          5.3139837249       -2.7470135946       -0.0274811073
 H          5.7172402867       -1.9655630464        1.5136025895
 O          4.0807566126       -0.1415750459        1.4591051847
 C          3.3320766484        1.0132085554        1.3235163988
 O          3.3869317855        1.7738092562        2.3101073884
 O          2.0260689118        0.4167510148       -2.0115196270
 C          1.8047627123        2.5115154313        0.0918053875
 C          0.3567917275        2.1880021111        0.3734079325
 C         -0.2160360203        2.5048055762        1.5999805558
 C         -1.5233534974        2.1480257219        1.8805814885
 C         -2.2821276290        1.4610204810        0.9495393734
 C         -1.7147165682        1.1311624952       -0.2738833629
 C         -0.4118968836        1.5084030027       -0.5609606457
 H          0.0284082464        1.2274588782       -1.5059685288
 N         -2.4693097633        0.4021024658       -1.2164886774
 S         -3.0171626404       -1.1026697495       -0.6983841896
 O         -2.1567698541       -1.6561924135        0.3229925513
 O         -3.1806800143       -1.8909519610       -1.9004853975
 C         -4.6242639115       -0.7472784491       -0.0186276750
 C         -5.5539516162       -0.1342443717       -0.8358982409
 C         -6.8107009541        0.1479305199       -0.3250666347
 C         -7.1158459503       -0.1886239925        0.9855525912
 C         -6.1726081281       -0.8068311490        1.7920101674
 C         -4.9127924766       -1.0905748802        1.2874758447
 H         -4.1446987435       -1.5638043579        1.8783040877
 H         -6.4113388460       -1.0677109145        2.8105802860
 H         -8.0945642397        0.0323746505        1.3811844506
 H         -7.5469864472        0.6285085832       -0.9488826868
 H         -5.2765738951        0.1062774045       -1.8485490835
 H         -1.9872371072        0.2983557145       -2.0993549060
 H         -3.2971525730        1.1696777762        1.1660238846
 H         -1.9542196628        2.4016830455        2.8371805767
 H          0.3812694916        3.0144994125        2.3423721434
 H          2.1782333466        3.1272457403        0.9205132691
 C          1.9819805577        3.2871175376       -1.1979861737
 C          1.6205312163        4.7407506309       -1.2230924438
 C          3.0589400160        4.3245999602       -1.2833910067
 H          3.5922587924        4.4365251524       -2.2154566241
 H          3.6733362575        4.4803966609       -0.4084135433
 H          1.1635774138        5.1422277940       -2.1144318217
 H          1.2592133413        5.1808154636       -0.3059758803
 H          1.7886946288        2.7029964878       -2.0875767334
