  62
        -98.94124006
 C         -1.8707054822       -1.2182182225       -0.1178186906
 C         -0.9553921374       -1.6618746963       -1.1038139480
 C          0.1272589437       -2.5670519800       -0.6756008607
 C          0.1791360949       -2.9371481026        0.6171230369
 C          1.2225823226       -3.7791393622        1.3009735170
 C          2.5145031707       -2.9907808400        1.5721915552
 C          3.0055966050       -2.1348399811        0.4071545315
 H          2.2281430409       -1.4129322475        0.1507448197
 H          3.8630313959       -1.5562549975        0.7632534376
 C          3.4381447838       -2.8999676932       -0.8415500657
 H          4.2570931311       -3.5734675232       -0.5791963961
 H          3.8255643642       -2.1633079917       -1.5498612755
 C          2.3496809671       -3.7128915660       -1.5456604043
 H          2.1461400827       -4.6375834327       -1.0125539232
 H          2.7428113889       -3.9996187817       -2.5253912649
 C          1.0522652751       -2.9540869553       -1.8044941256
 H          1.2865740965       -2.0240684707       -2.3328092978
 H          0.4398745775       -3.5393205657       -2.5013879631
 H          2.3250390114       -2.3135547393        2.4097085295
 H          3.2940929813       -3.6943389834        1.8705611056
 H          0.7990373262       -4.0888202101        2.2591486171
 H          1.4259823033       -4.6749708884        0.7215980742
 O         -0.7472616001       -2.5250483450        1.5250549050
 C         -1.7585281413       -1.6331943385        1.2102371965
 O         -2.4697771045       -1.3224919718        2.1860709087
 O         -1.0267972340       -1.2970333356       -2.3100340735
 C         -2.8893492362       -0.1859584327       -0.5661850907
 C         -2.3095036340        1.2086986690       -0.4577023457
 C         -2.6496336749        2.2006708087       -1.3713668475
 C         -2.0772024078        3.4572286203       -1.2916491071
 C         -1.1231095350        3.7382216994       -0.3288182417
 C         -0.7753878518        2.7541842924        0.5879564257
 C         -1.3979256930        1.5150779588        0.5403616989
 H         -1.1301393264        0.7737992611        1.2769423905
 N          0.2245661182        2.9702716240        1.5559057665
 S          1.4977691031        1.8789456920        1.6184514904
 O          1.0354441420        0.5876243045        2.0533679266
 O          2.4853264811        2.5231208805        2.4573622133
 C          2.0982001491        1.8002244767       -0.0589618694
 C          3.1575898289        2.6060898645       -0.4288716441
 C          3.5819606034        2.5940204276       -1.7477204445
 C          2.9324562472        1.7932945442       -2.6755843782
 C          1.8675908052        0.9941225867       -2.2900998850
 C          1.4483229429        0.9915124193       -0.9693346188
 H          0.6259447102        0.3726497121       -0.6460787521
 H          1.3449396447        0.3732222002       -3.0014831966
 H          3.2561245498        1.7898208809       -3.7044234367
 H          4.4125354584        3.2116745416       -2.0492759030
 H          3.6317053881        3.2126642081        0.3257426870
 H          0.5873968147        3.9135800301        1.5670016775
 H         -0.6476054943        4.7063310371       -0.2889576300
 H         -2.3539752027        4.2189891536       -2.0040472053
 H         -3.3566389101        1.9778675983       -2.1556292115
 H         -3.0609478238       -0.3842523114       -1.6340975961
 C         -4.2207824184       -0.2592482165        0.1532852244
 C         -5.4731050606        0.1557051419       -0.5570826530
 C         -5.2249189686       -1.2918335432       -0.2592395039
 H         -5.8070183151       -1.7756801483        0.5101875011
 H         -4.9603553730       -1.9434295243       -1.0793709808
 H         -6.2334800893        0.6736692932        0.0066928639
 H         -5.3903738590        0.4770048651       -1.5839331784
 H         -4.1451833984       -0.0402089341        1.2106880786
