  62
        -98.93822696
 C          1.1856498819        1.4988050436        0.3464172602
 C          1.7301536708        0.5354024362        1.2295758055
 C          2.9256303344       -0.1933734326        0.7740046699
 C          3.3954484279        0.0264786881       -0.4676764584
 C          4.6008309133       -0.5341729142       -1.1928480323
 C          5.3342809779       -1.7593542987       -0.6545760892
 C          4.5322253730       -3.0593536655       -0.7103958765
 H          4.4152568388       -3.3511191935       -1.7572416093
 H          5.1106919148       -3.8394930749       -0.2104024515
 C          3.1367028773       -3.0064768113       -0.0927428660
 H          2.5052975877       -2.3102710247       -0.6503407167
 H          2.6815134430       -3.9945744636       -0.2073383701
 C          3.0887635339       -2.6445388857        1.3903158537
 H          2.0578120957       -2.7914891569        1.7247687895
 H          3.7249899197       -3.3280568846        1.9565125925
 C          3.4895541912       -1.1999583281        1.7351776235
 H          3.0675864432       -0.9591658209        2.7154139338
 H          4.5696155402       -1.0973650700        1.8094826402
 H          5.6891135376       -1.5730652644        0.3548014846
 H          6.2197227504       -1.8923866119       -1.2822243473
 H          4.2625637451       -0.7396111035       -2.2136367944
 H          5.3154354775        0.2934919221       -1.2655764025
 O          2.7991261314        0.9187346012       -1.3103701999
 C          1.6800441289        1.6542216586       -0.9480147794
 O          1.2443824172        2.3848556587       -1.8571156296
 H         -0.7134297758       -0.0168691024       -0.4078992282
 C         -1.3764195965        0.7787735692       -0.7096898748
 C         -1.1638500247        2.0614044407       -0.2220230800
 C         -1.9964459043        3.0811059976       -0.6633644444
 C         -3.0067123994        2.8119502348       -1.5716288748
 C         -3.2241000875        1.5293565294       -2.0405057777
 C         -2.3926733960        0.5021538618       -1.6072036751
 N         -2.5637632066       -0.8147059782       -2.0557395603
 S         -2.1418485671       -2.0956884563       -1.0718359023
 O         -0.7094662588       -2.2532588732       -1.0302535536
 O         -2.8814792270       -3.2159189114       -1.6147927664
 C         -2.7855987020       -1.6762642444        0.5390231660
 C         -4.1571082414       -1.5682411647        0.6677940649
 C         -4.6910770263       -1.2034344486        1.8923456203
 C         -3.8481031144       -0.9480178011        2.9637056862
 C         -2.4748645483       -1.0680689268        2.8214243981
 C         -1.9357660921       -1.4372263964        1.5989741789
 H         -0.8691364013       -1.5282695357        1.4620555035
 H         -1.8103220968       -0.8666137836        3.6466870476
 H         -4.2619858420       -0.6555265445        3.9157610179
 H         -5.7592701076       -1.1145442734        2.0071917337
 H         -4.7807813208       -1.7824796237       -0.1847308673
 H         -3.4000698729       -0.9895990367       -2.5916480734
 H         -4.0149600587        1.3240717176       -2.7453038965
 H         -3.6402227220        3.6152649380       -1.9158108671
 H         -1.8449936508        4.0892881034       -0.3148364993
 C         -0.0612216438        2.2391848415        0.7929465771
 H         -0.3746599999        1.7004513732        1.7044862517
 C          0.1636912442        3.6854883986        1.2085369468
 C          1.5315524906        4.1957168065        1.5479827879
 C          0.8350261853        4.6833891608        0.3148082744
 H          0.4608741628        5.6968545613        0.3064938938
 H          1.1837514035        4.3349155762       -0.6442043411
 H          1.6349503573        4.8693401511        2.3856024756
 H          2.3639254726        3.5171756031        1.4266098799
 H         -0.6470520017        4.0597887025        1.8259770091
 O          1.2357141238        0.2908571144        2.3632836397
