  62
        -98.93989480
 C         -1.0784234913       -1.8514907002        0.5200847643
 C         -1.7930958701       -1.5641034451       -0.6693281561
 C         -2.9783193516       -0.7025562069       -0.5098735858
 C         -3.2471409783       -0.1542389539        0.6880202660
 C         -4.4107690567        0.7491972122        0.9770856567
 C         -4.0685373810        2.2277639141        0.7515786828
 C         -3.3897076618        2.5100539091       -0.5879763874
 H         -3.2264320711        3.5879449402       -0.6506255118
 H         -2.4077956469        2.0313711087       -0.5968659666
 C         -4.1864989475        2.0504225582       -1.8161947105
 H         -5.2304053899        1.8885644627       -1.5450327766
 H         -4.1660544168        2.8445386398       -2.5655934736
 C         -3.6368977569        0.7904572713       -2.4859050750
 H         -4.1240738768        0.6809971719       -3.4586467271
 H         -2.5660780881        0.9097326638       -2.6701916639
 C         -3.8547809299       -0.5187680510       -1.7177619895
 H         -4.9078487782       -0.6085129294       -1.4415255069
 H         -3.6067897888       -1.3423398758       -2.3941533649
 H         -3.3992098854        2.5530360231        1.5499725775
 H         -4.9908906520        2.8071680054        0.8231335011
 H         -5.2459173364        0.4604474777        0.3408290169
 H         -4.6987539825        0.6081684619        2.0202991575
 O         -2.4644249204       -0.3536319893        1.7791929808
 C         -1.3913686033       -1.2274578833        1.7313216820
 O         -0.7968215636       -1.3697305793        2.8170928476
 H          0.6588775565       -0.8123689088       -1.1370238955
 C          1.5207765974       -1.0963796658       -0.5498063789
 C          1.4062132609       -2.1256828346        0.3735577672
 C          2.5267212272       -2.4791740941        1.1162210826
 C          3.7364033071       -1.8347016974        0.9210727592
 C          3.8458300836       -0.8072007684        0.0010680036
 C          2.7233417177       -0.4269656775       -0.7238228700
 N          2.8111230185        0.6744911374       -1.6050118011
 S          3.0471623531        2.1590883781       -0.8603836482
 O          2.8614117376        3.1499015794       -1.8948597232
 O          4.3325058739        2.1452680980       -0.2109101039
 C          1.7501971953        2.3007079679        0.3590752627
 C          0.6793025860        3.1326897572        0.1013684939
 C         -0.3436753587        3.2177632405        1.0321377918
 C         -0.2958651728        2.4464268550        2.1829592822
 C          0.7820176871        1.6096811834        2.4252515492
 C          1.8229570290        1.5440681550        1.5129352736
 H          2.6836468589        0.9201663365        1.6882540588
 H          0.8057005688        0.9955164532        3.3112685405
 H         -1.1009446985        2.4910195011        2.8998390428
 H         -1.1751335307        3.8807428933        0.8555462431
 H          0.6733929275        3.7039286674       -0.8132156041
 H          2.0172793934        0.7424961392       -2.2274473922
 H          4.7692516648       -0.2701345662       -0.1412039238
 H          4.6004397649       -2.1268921719        1.4981119543
 H          2.4425465124       -3.2549784390        1.8628270665
 C          0.0874607572       -2.8253820118        0.5798552577
 H          0.0872283454       -3.2167090666        1.6099750084
 C         -0.0898307765       -4.0141966729       -0.3563048346
 C          0.6942926592       -4.1868452054       -1.6187319570
 C          0.9622285956       -5.0794494488       -0.4468392812
 H          0.6456401027       -6.1102222566       -0.4977856937
 H          1.8826218009       -4.9260137598        0.0951020007
 H          0.1796348598       -4.5873537860       -2.4785296857
 H          1.4279752276       -3.4354524223       -1.8669178132
 H         -1.1209671221       -4.3512868113       -0.3840813892
 O         -1.4877772264       -1.9982756080       -1.8096093960
