  62
        -98.94524123
 C         -1.8058147126       -1.4692335465        0.1000988566
 C         -1.5622224497       -0.0835360260       -0.0637586478
 C         -2.6269473362        0.8058780831        0.4183083679
 C         -3.7382452785        0.2860980757        0.9699227929
 C         -4.9026193457        1.0667047254        1.5171123291
 C         -5.9159716141        1.5066147364        0.4513411839
 C         -5.4495761018        2.6394186649       -0.4642098654
 H         -6.3285206993        2.9944973035       -1.0060833614
 H         -5.0855467634        3.4686649940        0.1430669107
 C         -4.3746050293        2.2312806696       -1.4813826927
 H         -4.6368907184        2.6264894617       -2.4654190956
 H         -4.3522921596        1.1426364376       -1.5698083153
 C         -2.9677119571        2.7298904679       -1.1512941332
 H         -2.9487844681        3.8211809763       -1.1917163094
 H         -2.2822870976        2.3508157478       -1.9131608652
 C         -2.4460481516        2.2801361177        0.2193590474
 H         -1.3737000815        2.4825476490        0.2621100769
 H         -2.9447216738        2.8356625228        1.0132029572
 H         -6.1870891968        0.6376495563       -0.1528017510
 H         -6.8151142459        1.8391618819        0.9753362189
 H         -5.4119685257        0.4097232967        2.2254939484
 H         -4.5374239083        1.9412949412        2.0562336879
 O         -3.9281849116       -1.0531830941        1.1151408471
 C         -2.9728208287       -1.9598322336        0.6849633752
 O         -3.2714891893       -3.1555873192        0.8817692808
 H          1.6781575897       -1.7383642377       -1.4243335422
 C          1.6825470339       -1.7750849444       -0.3465294540
 C          0.5406322215       -2.1535454409        0.3391866540
 C          0.5802938629       -2.1857586662        1.7308311502
 C          1.7299314007       -1.8402165118        2.4144685432
 C          2.8649646617       -1.4472061405        1.7259457609
 C          2.8344895023       -1.4100581769        0.3390744809
 N          3.9805950507       -1.0060729263       -0.3735539603
 S          4.6560380248        0.4833192634       -0.0144863953
 O          5.5848139303        0.7400174040       -1.0923522914
 O          5.2191509482        0.4390396394        1.3116158253
 C          3.3172175956        1.6589507586       -0.0725583686
 C          3.0056833431        2.2406847076       -1.2848717306
 C          1.9547615692        3.1398527687       -1.3466644145
 C          1.2321522932        3.4343593854       -0.2016232279
 C          1.5499402621        2.8328781031        1.0055479506
 C          2.6021938400        1.9347786538        1.0746532572
 H          2.8820196797        1.4527701316        1.9971540328
 H          0.9791195923        3.0565207021        1.8931123635
 H          0.4155259059        4.1379066276       -0.2521545312
 H          1.6987139761        3.6048418428       -2.2852443291
 H          3.5994937124        1.9924933404       -2.1502307139
 H          3.8737876364       -1.0903437081       -1.3747347431
 H          3.7659027216       -1.1579672538        2.2424219088
 H          1.7438793022       -1.8716544509        3.4936997733
 H         -0.3118564517       -2.4764739039        2.2695634216
 C         -0.7615546748       -2.4762533148       -0.3506415756
 H         -1.1078285250       -3.4580862522        0.0010021485
 C         -0.6731422877       -2.5018996883       -1.8619291012
 C         -0.1220216580       -3.7079652630       -2.5601685309
 C         -1.5886837615       -3.4071473053       -2.6273189982
 H         -2.0012045640       -3.0539579332       -3.5605981925
 H         -2.2677207793       -4.0244061211       -2.0572076262
 H          0.1979400532       -4.5366710767       -1.9468136802
 H          0.4705700799       -3.5656082747       -3.4513867493
 H         -0.4715219082       -1.5255115382       -2.2876560696
 O         -0.5175277198        0.3883683753       -0.5803988306
