  62
        -98.94320756
 C          2.3948443515        0.3979607711        0.1021871742
 C          3.4622878918        0.3870832465        1.0316551130
 C          4.5006799577       -0.6225868836        0.7994764831
 C          4.3795253985       -1.4789678016       -0.2314321796
 C          5.3440018902       -2.5784796614       -0.5850086558
 C          6.5387712792       -2.1127902198       -1.4286411373
 C          7.5842951857       -1.2875282836       -0.6773533559
 H          7.8874546822       -1.8207100691        0.2242582365
 H          8.4611961146       -1.2166697002       -1.3240062815
 C          7.1272113825        0.1311211485       -0.3098904689
 H          7.9169340145        0.8439495263       -0.5578372578
 H          6.2544378939        0.3997461631       -0.9095535852
 C          6.7898662609        0.3258698763        1.1683559318
 H          6.4433285656        1.3530529100        1.3080838731
 H          7.6905304509        0.1898379227        1.7711541545
 C          5.7012978663       -0.6173526354        1.6969623687
 H          6.0988202109       -1.6259078967        1.8081029022
 H          5.3814709790       -0.2563545880        2.6776157428
 H          7.0276273199       -3.0070192510       -1.8220676289
 H          6.1632320981       -1.5384288681       -2.2786534124
 H          5.7047628074       -3.0571349069        0.3257979963
 H          4.7791998336       -3.3123764003       -1.1637905551
 O          3.3225726342       -1.4533027133       -1.0863411218
 C          2.3157254092       -0.5075533640       -0.9555946859
 O          1.4268886268       -0.5809078183       -1.8249826545
 H         -1.0746494280        1.7728091710       -1.1183192568
 C         -1.1464254764        1.0439835069       -0.3260068170
 C         -0.0371446327        0.7543785367        0.4515029220
 C         -0.1693715545       -0.1860726230        1.4704811663
 C         -1.3728851798       -0.8263441632        1.6910065917
 C         -2.4749214934       -0.5438286220        0.9019858736
 C         -2.3583268157        0.3985495681       -0.1089701372
 N         -3.4714260882        0.6886047836       -0.9150691392
 S         -4.9364582735        1.0309771047       -0.1728209970
 O         -5.6597710588        1.8459504807       -1.1244910392
 O         -4.7423588882        1.5982456108        1.1413260884
 C         -5.7394553374       -0.5527350728       -0.0428229399
 C         -5.9287098664       -1.2843180108       -1.1988439834
 C         -6.5650899966       -2.5124053046       -1.1167929640
 C         -7.0020711986       -2.9841282942        0.1121846638
 C         -6.8075982971       -2.2361340110        1.2631710201
 C         -6.1706865403       -1.0071330364        1.1879544391
 H         -5.9946537671       -0.3929987718        2.0568542861
 H         -7.1488607592       -2.6042754222        2.2173897557
 H         -7.4977344756       -3.9401718369        0.1729278220
 H         -6.7183000587       -3.0968878876       -2.0097240067
 H         -5.5784527686       -0.8813134089       -2.1344691295
 H         -3.2789613938        1.3441115896       -1.6584587647
 H         -3.4163136438       -1.0423728370        1.0656152998
 H         -1.4560590537       -1.5545980974        2.4835568284
 H          0.6905600151       -0.4078944159        2.0879115447
 C          1.2964910257        1.4331930118        0.2612240552
 H          1.5363976052        1.9705969407        1.1909867985
 C          1.3300007631        2.4171644036       -0.8891260678
 C          0.7964098017        3.8062622106       -0.7088283929
 C          2.2733627886        3.5789764553       -0.8208699141
 H          2.7766945735        3.8888055345       -1.7244591822
 H          2.8762945762        3.6768342329        0.0700215769
 H          0.2869494226        4.2766726043       -1.5367045880
 H          0.3938832002        4.0651638170        0.2590135689
 H          1.1985714157        1.9374901532       -1.8529195152
 O          3.5391844219        1.1781619287        2.0098704417
