  62
        -98.94437500
 C         -2.3580899849       -1.1219854711        0.2374763092
 C         -2.3875647354        0.1589568407       -0.3654942376
 C         -3.3987802502        1.0864884251        0.1595636000
 C         -4.1922196046        0.7113560173        1.1787420419
 C         -5.2536384345        1.5525067832        1.8341601358
 C         -6.6020056255        1.5380263440        1.1008530304
 C         -6.6367413592        2.3186037148       -0.2136788378
 H         -7.6849827228        2.4070397509       -0.5058228095
 H         -6.2593869565        3.3278115914       -0.0457497316
 C         -5.8590329863        1.6609220768       -1.3621304258
 H         -5.6722528253        0.6117639312       -1.1220006736
 H         -6.4660610403        1.6784569333       -2.2700725179
 C         -4.5282247497        2.3358612978       -1.6949913268
 H         -4.7116017530        3.3475814956       -2.0637423168
 H         -4.0463609333        1.7683594498       -2.4952437052
 C         -3.5489568267        2.4160863143       -0.5163418937
 H         -3.8794295720        3.1710139708        0.1968794096
 H         -2.5678183727        2.7063543226       -0.9012482002
 H         -7.3437029203        1.9717663969        1.7754330981
 H         -6.8874696819        0.4999643516        0.9159373704
 H         -5.4014140871        1.1408484977        2.8348602199
 H         -4.9001991824        2.5795610153        1.9299377101
 O         -4.1017532618       -0.5136765362        1.7609468825
 C         -3.1995328463       -1.4572919702        1.3014752803
 O         -3.2394284880       -2.5431116672        1.9137390216
 O         -1.6229227705        0.5213343144       -1.2985327842
 C         -1.3740018192       -2.1901018842       -0.2152129911
 C          0.0131675103       -1.7524983235        0.1872788293
 C          0.4383723991       -1.9696530928        1.4951998106
 C          1.6774307707       -1.5258647041        1.9162705459
 C          2.5150462924       -0.8484736271        1.0463930794
 C          2.0918348493       -0.6102684618       -0.2535233774
 C          0.8549235090       -1.0767075587       -0.6811869484
 H          0.5336422165       -0.8733617999       -1.6901669968
 N          2.9282802871        0.0827893385       -1.1440263869
 S          3.7143720142        1.4639047797       -0.6074465422
 O          2.9751080209        2.1390194399        0.4341902926
 O          3.9873441382        2.2306156877       -1.8037929023
 C          5.2541290509        0.8419911665        0.0388790937
 C          5.6668899117        1.2050815839        1.3058280573
 C          6.8736533101        0.7178227474        1.7836499143
 C          7.6432362113       -0.1183359484        0.9896039177
 C          7.2163975904       -0.4708918809       -0.2821179038
 C          6.0116816470        0.0134713637       -0.7658215149
 H          5.6460196810       -0.2350693210       -1.7479790066
 H          7.8174265138       -1.1213679869       -0.8969105331
 H          8.5809763260       -0.4972916916        1.3641916132
 H          7.2068882430        0.9917937559        2.7717945896
 H          5.0327454454        1.8528831987        1.8902989872
 H          2.5078103358        0.2398447149       -2.0488811651
 H          3.4773358619       -0.4888900960        1.3720308486
 H          1.9954185272       -1.7051286805        2.9321529884
 H         -0.2252420858       -2.4792717609        2.1802499276
 H         -1.6247204133       -3.0911761028        0.3599558252
 C         -1.5185182276       -2.4996349747       -1.6905707039
 C         -0.8980592456       -3.7471091454       -2.2416175764
 C         -2.3875906205       -3.6435446788       -2.1147526780
 H         -2.9769706845       -3.5363622623       -3.0131506132
 H         -2.8765232404       -4.2140494601       -1.3385038408
 H         -0.4629385431       -3.7148585860       -3.2287565243
 H         -0.3741146197       -4.3886683387       -1.5495024705
 H         -1.5276521226       -1.6168955988       -2.3175598166
