  62
        -98.94178894
 C         -2.5366687371       -0.3012477078        0.0242597121
 C         -2.2749924295       -1.3453686210       -0.8894999044
 C         -1.5791915179       -2.5297221288       -0.3570845903
 C         -1.2371101166       -2.5512435609        0.9431698549
 C         -0.4447681134       -3.6025575168        1.6708024915
 C          1.0547278247       -3.2565998200        1.6392741473
 C          1.8183370198       -3.8323714523        0.4483758984
 H          2.8395408980       -3.4474136383        0.5013658046
 H          1.8671646453       -4.9199698031        0.5425472641
 C          1.2380832294       -3.4822874517       -0.9239471641
 H          0.9663017279       -2.4242590834       -0.9478830439
 H          2.0275346359       -3.6202113584       -1.6661581232
 C          0.0342689080       -4.3534286923       -1.3128343649
 H         -0.0256977288       -5.2042301244       -0.6341600435
 H          0.1949593541       -4.7639317494       -2.3122275530
 C         -1.3158084596       -3.6268444525       -1.3533286500
 H         -1.4356793834       -3.1453390200       -2.3293985521
 H         -2.1199447786       -4.3669401862       -1.2706331449
 H          1.1500128360       -2.1670267817        1.6383065709
 H          1.5207594722       -3.6288027535        2.5543212992
 H         -0.7867321097       -3.5846011286        2.7077049527
 H         -0.6323190870       -4.5888885537        1.2565425229
 O         -1.5401953372       -1.5363941631        1.7989568994
 C         -2.1541884827       -0.3787721299        1.3633541187
 O         -2.3240219445        0.4821003216        2.2490876662
 O         -2.5984594820       -1.2847820412       -2.1092571152
 C         -3.1245831683        1.0034657012       -0.4846978033
 C         -2.1157888014        2.1005329414       -0.2413341022
 C         -2.4295805881        3.3466728760        0.2840265071
 C         -1.4261455909        4.2641542605        0.5483064840
 C         -0.0983108543        3.9543032445        0.3190522366
 C          0.2227015083        2.7169426087       -0.2288363613
 C         -0.7869011246        1.8217836241       -0.5337078647
 H         -0.5268467119        0.8659399621       -0.9649697353
 N          1.5565422488        2.3500825056       -0.4863100676
 S          1.9483290316        0.7140539043       -0.2991505867
 O          1.6168919655        0.0234101457       -1.5200887737
 O          1.3740742013        0.1921506681        0.9195138130
 C          3.7215678759        0.8247261303       -0.1474455147
 C          4.4749088286        0.9894525036       -1.2945615039
 C          5.8509432704        1.1075423784       -1.1807634511
 C          6.4474629285        1.0593695662        0.0707105556
 C          5.6788814215        0.8900418679        1.2124817337
 C          4.3016106655        0.7735035800        1.1057043933
 H          3.6631208274        0.6331261044        1.9634644416
 H          6.1449609504        0.8481830569        2.1837293999
 H          7.5186499856        1.1506073971        0.1566135938
 H          6.4519839558        1.2356408717       -2.0664405432
 H          3.9665404751        1.0099783604       -2.2443340124
 H          2.2236094112        2.9477339847       -0.0169794315
 H          0.6831144629        4.6579028633        0.5629065061
 H         -1.6815092808        5.2270266029        0.9643735219
 H         -3.4555073683        3.5929071435        0.5043656010
 H         -3.2447199206        0.8708411311       -1.5706294099
 C         -4.4798451645        1.2754733066        0.1310767353
 C         -5.5051989541        2.0703309408       -0.6196254378
 C         -5.6848873913        0.5935614151       -0.4417838919
 H         -6.4483129420        0.2418943817        0.2356635040
 H         -5.5285065362       -0.0498019928       -1.2954732173
 H         -6.1508573061        2.7335102440       -0.0640428381
 H         -5.2365776780        2.4322519227       -1.6005568310
 H         -4.4298083039        1.3845901799        1.2085847022
