  62
        -98.94489451
 C         -1.8942384935       -1.0684191984       -0.2186385195
 C         -3.0324363855       -1.1661108686        0.6265992423
 C         -4.2678354588       -0.5513251568        0.1325526466
 C         -4.2779526745        0.0433436609       -1.0738176708
 C         -5.4638300109        0.6935894583       -1.7327776470
 C         -5.7091249718        2.1420210198       -1.2882399140
 C         -6.2645320534        2.3027194183        0.1275080880
 H         -6.5937325488        3.3390401620        0.2264486365
 H         -7.1443945726        1.6694619918        0.2455032673
 C         -5.2544268251        1.9977736812        1.2426561276
 H         -4.2419184058        2.0121121227        0.8320390796
 H         -5.3011803424        2.7827579330        2.0008874731
 C         -5.4801918316        0.6648204559        1.9564511755
 H         -4.6869167285        0.5354013200        2.6971076067
 H         -6.4350186088        0.6902351064        2.4862114365
 C         -5.4681714685       -0.5579963425        1.0299338353
 H         -6.3839486413       -0.5921715111        0.4400969720
 H         -5.4156174632       -1.4568282668        1.6490877907
 H         -4.7732863375        2.6987790546       -1.3776800771
 H         -6.4243227093        2.5806923866       -1.9879633971
 H         -5.2628602821        0.6923937358       -2.8062987670
 H         -6.3582645554        0.0985113160       -1.5461333552
 O         -3.1750591143        0.1014971049       -1.8631041258
 C         -1.9577518915       -0.4269676106       -1.4554435843
 O         -1.0460551875       -0.2572790067       -2.2912147645
 O         -3.0155524109       -1.7521835271        1.7411087271
 C         -0.6110679147       -1.6968477856        0.2992851197
 C          0.3264582933       -0.6549820770        0.8609771317
 C          0.6247910998       -0.6214210842        2.2180064980
 C          1.5058675925        0.3184736106        2.7249459841
 C          2.1075677174        1.2417347640        1.8891904650
 C          1.8087325970        1.2204000280        0.5329105932
 C          0.9309942663        0.2742099270        0.0258053979
 H          0.6957759605        0.2703063047       -1.0280571132
 N          2.4291444421        2.1491736780       -0.3293034456
 S          4.1052505323        2.0921132115       -0.3458653500
 O          4.6137677727        2.7735026191        0.8181942291
 O          4.5047416019        2.6361522312       -1.6242046698
 C          4.4845013467        0.3520809907       -0.2488901274
 C          4.2338879162       -0.4281930384       -1.3600622866
 C          4.4452045761       -1.7946315962       -1.2807218757
 C          4.8914621614       -2.3558507331       -0.0940308216
 C          5.1391392170       -1.5585418944        1.0122549798
 C          4.9324768477       -0.1903759149        0.9381688123
 H          5.1133415113        0.4655060065        1.7736590624
 H          5.4874496882       -1.9982129145        1.9327793182
 H          5.0477518596       -3.4213444904       -0.0324452716
 H          4.2565471131       -2.4149595286       -2.1424434079
 H          3.8889412113        0.0426696157       -2.2670178858
 H          2.0719682225        2.1011518197       -1.2733513833
 H          2.8018908952        1.9776704917        2.2615387424
 H          1.7270093498        0.3319076638        3.7811945832
 H          0.1514940672       -1.3333260542        2.8783695068
 H         -0.9284874496       -2.3410594432        1.1300200989
 C          0.0999021863       -2.5551692031       -0.7295829624
 C          1.1092480479       -3.5580281311       -0.2604286827
 C         -0.2086316715       -4.0189392908       -0.8052981074
 H         -0.2326788619       -4.4897109042       -1.7766744822
 H         -0.9388982435       -4.4124966953       -0.1133192326
 H          1.9953464350       -3.7116548074       -0.8558945257
 H          1.2744748362       -3.6384462441        0.8030031865
 H          0.2946818912       -2.0406803996       -1.6612298266
