  62
        -98.94032689
 C         -1.4465851002       -1.4804854812        0.0013509445
 C         -2.4376648622       -0.9977233499        0.8841760776
 C         -3.2508283957        0.1357941682        0.4064206365
 C         -2.9889898403        0.6535917474       -0.8081991119
 C         -3.7033696703        1.8046925117       -1.4631532249
 C         -3.2692275990        3.1859353211       -0.9236801999
 C         -2.7823173062        3.1929037440        0.5258543305
 H         -2.0621498229        2.3842444714        0.6675701702
 H         -2.2501777597        4.1315688061        0.7024469820
 C         -3.8926303510        3.0835673268        1.5713871572
 H         -4.4377700499        4.0305417768        1.6018830938
 H         -3.4273489420        2.9375723795        2.5495703487
 C         -4.9116811377        1.9710910522        1.3371566380
 H         -5.4572004927        2.1604428779        0.4163223937
 H         -5.6423278842        2.0186160366        2.1502942153
 C         -4.3503631147        0.5498219139        1.3519149039
 H         -3.9638605453        0.3313593913        2.3536067657
 H         -5.1826535432       -0.1482751623        1.1962451825
 H         -4.1002053930        3.8844639094       -1.0289442659
 H         -2.4524981792        3.5525760109       -1.5485174150
 H         -4.7751218215        1.6584399992       -1.3490347448
 H         -3.4742564042        1.7554054224       -2.5291781051
 O         -1.9829651798        0.1957458125       -1.6019768315
 C         -1.1955965102       -0.8825989894       -1.2341520541
 O         -0.3322900370       -1.2028622012       -2.0690647730
 O         -2.6370547670       -1.4905000033        2.0291904198
 C         -0.6131143605       -2.6813923555        0.4112223087
 C          0.8480282896       -2.3099698128        0.4378301753
 C          1.8400130566       -3.0339379490       -0.2089702931
 C          3.1591253223       -2.6149455765       -0.1617387083
 C          3.5181745199       -1.4750340951        0.5328249851
 C          2.5340851562       -0.7497759607        1.1925507625
 C          1.2152464100       -1.1697191681        1.1430283340
 H          0.4494661750       -0.5986908847        1.6542085296
 N          2.8892245135        0.4243918050        1.8919295991
 S          3.5853787557        1.6290684778        0.9532444509
 O          4.9512921429        1.2710598650        0.6671843578
 O          3.3919913951        2.8541843896        1.6962783600
 C          2.6219779599        1.6407856135       -0.5451604084
 C          1.3779650882        2.2382048488       -0.5130087001
 C          0.5853893972        2.1943969450       -1.6470674590
 C          1.0393596383        1.5433053533       -2.7828880887
 C          2.2885874415        0.9447210745       -2.7971674812
 C          3.0901993655        0.9907162797       -1.6684367463
 H          4.0676605906        0.5378831575       -1.6396577040
 H          2.6329986320        0.4315196465       -3.6801885115
 H          0.4095311007        1.4928907072       -3.6565477008
 H         -0.3907108636        2.6514710550       -1.6368014525
 H          1.0560254956        2.7360617953        0.3886716071
 H          2.1200807783        0.8146486736        2.4184376067
 H          4.5378851327       -1.1272994980        0.5695027592
 H          3.9181790728       -3.1843080343       -0.6760790203
 H          1.5809080772       -3.9226520903       -0.7599999514
 H         -0.9250959624       -2.9180134082        1.4394211189
 C         -0.9272092066       -3.8665258593       -0.4770616811
 C         -0.7583809037       -5.2624706440        0.0413767148
 C         -2.1320932766       -4.7019374776       -0.1683714844
 H         -2.7245466892       -5.0767628349       -0.9894710876
 H         -2.7143547259       -4.4310452233        0.7004422281
 H         -0.4094130265       -6.0268124163       -0.6363565822
 H         -0.4089042615       -5.3800380723        1.0559722933
 H         -0.7062801776       -3.6752713525       -1.5210370491
