  62
        -98.93280058
 C          1.8255506624        0.6581825170        0.8713199583
 C          2.1605148119       -0.7158218696        0.7767402392
 C          3.5867015072       -1.0495346901        0.6247182627
 C          4.4859841011       -0.0513213553        0.5942518012
 C          5.9729956549       -0.1605112437        0.3982282311
 C          6.3385513081       -0.0050067694       -1.0876646710
 C          6.3048329144       -1.2999277633       -1.8984737833
 H          6.4537316090       -1.0305970110       -2.9467085719
 H          7.1444885038       -1.9313822531       -1.6004034577
 C          5.0138466855       -2.1141039265       -1.7787915322
 H          4.1515570542       -1.4460641277       -1.8220682391
 H          4.9536298698       -2.7748774834       -2.6458271109
 C          4.9525228228       -2.9643034145       -0.5010563662
 H          5.9403376637       -2.9878945055       -0.0411594854
 H          4.7095272340       -3.9956952198       -0.7648253215
 C          3.9110294313       -2.5158147710        0.5345773809
 H          2.9520160164       -2.9972248066        0.3191778268
 H          4.2199258965       -2.8659096594        1.5252719735
 H          7.3450834641        0.4122764586       -1.1591548114
 H          5.6514771213        0.7228241605       -1.5269697425
 H          6.3473453310       -1.0974519826        0.7998063958
 H          6.4212647529        0.6653193873        0.9546356389
 O          4.1259105696        1.2563280655        0.6917953416
 C          2.8016538137        1.6542740594        0.8206229062
 O          2.6571695645        2.8882622353        0.8773618312
 O          1.2952747847       -1.6322028179        0.8204118241
 C          0.3522395017        0.9827214062        1.0312794234
 C         -0.3261788136        1.2150423343       -0.2942774218
 C          0.2492031174        2.0010503449       -1.2869865557
 C         -0.4159569367        2.2164490686       -2.4805118214
 C         -1.6719021770        1.6767901447       -2.6965172893
 C         -2.2559976592        0.8905704932       -1.7107039958
 C         -1.5706648641        0.6492664641       -0.5283274397
 H         -2.0176682402        0.0167819083        0.2226562609
 N         -3.5255962035        0.3263171790       -1.8905902912
 S         -4.5931740719        0.2715608856       -0.5997145367
 O         -5.9014355939        0.2002486406       -1.2134586807
 O         -4.3733279128        1.3693250238        0.3115415320
 C         -4.2416969225       -1.2803018569        0.1966245049
 C         -3.9638076005       -1.3112939327        1.5486435443
 C         -3.7030454544       -2.5317500779        2.1514623489
 C         -3.7267007654       -3.6933541335        1.3954370319
 C         -4.0114941655       -3.6455393718        0.0390076461
 C         -4.2730459407       -2.4287637953       -0.5693522100
 H         -4.5007917161       -2.3513451700       -1.6193513616
 H         -4.0276090647       -4.5519274194       -0.5445466306
 H         -3.5201315460       -4.6411226127        1.8670521020
 H         -3.4791302846       -2.5702093576        3.2055683396
 H         -3.9490007630       -0.3835783576        2.0995472898
 H         -3.9857259561        0.5757473230       -2.7537979318
 H         -2.1962918248        1.8618691091       -3.6217566251
 H          0.0417669364        2.8260495454       -3.2452574052
 H          1.2149072340        2.4502087129       -1.1095790393
 H         -0.0884048068        0.0695045074        1.4630366334
 C          0.0839657170        2.1146942199        2.0136546157
 C         -0.3229302510        3.4929295085        1.5986177294
 C         -1.3166071211        2.5919039028        2.2651994242
 H         -1.6091089627        2.8106133560        3.2814707955
 H         -2.1137070194        2.1886028016        1.6565337745
 H          0.0871218542        4.3243597113        2.1512222632
 H         -0.4426133377        3.6928139261        0.5454552644
 H          0.7350871365        2.0526133652        2.8804380982
