  62
        -98.93474856
 C         -2.3292668685        0.6815661525        0.0578593418
 C         -3.5012594562        0.9617835902       -0.6805453662
 C         -4.7726496405        0.4881763974       -0.1066615631
 C         -4.7598534354       -0.1795991812        1.0624170816
 C         -5.8897427945       -0.7401707567        1.9011573914
 C         -7.2925984837       -0.8965383586        1.3197333178
 C         -7.4143016160       -1.9452496725        0.2147235650
 H         -7.2773053123       -2.9346194717        0.6582848687
 H         -8.4278920838       -1.8992969113       -0.1894349911
 C         -6.4158209459       -1.8134821347       -0.9325397868
 H         -6.6127427544       -2.6222238568       -1.6416072705
 H         -5.4015351976       -1.9579060946       -0.5545154010
 C         -6.4754860627       -0.4959701635       -1.7030200029
 H         -7.4941916339       -0.3207690166       -2.0541129351
 H         -5.8322759484       -0.5987749085       -2.5812404636
 C         -6.0030498336        0.7465437912       -0.9280783115
 H         -5.7280474556        1.5143234827       -1.6571351850
 H         -6.7989768727        1.1542681422       -0.3097133956
 H         -7.9370103989       -1.2114743007        2.1450163049
 H         -7.6675128693        0.0633281448        0.9771835009
 H         -5.5391285210       -1.7138780111        2.2576688835
 H         -5.9512705343       -0.0939095515        2.7837323053
 O         -3.5995230104       -0.4227752690        1.7414097757
 C         -2.3654848872       -0.0129385611        1.2649925593
 O         -1.4046605340       -0.3234909825        1.9942371339
 O         -3.4893877461        1.5848630694       -1.7767068082
 C         -0.9893480722        1.1453876117       -0.4802742192
 C         -0.0601196774       -0.0273902721       -0.6736761648
 C         -0.5216458822       -1.1481961845       -1.3605491988
 C          0.3011819227       -2.2369408267       -1.5710018073
 C          1.6092381010       -2.2260833535       -1.1186833837
 C          2.0808625289       -1.1126763323       -0.4349767261
 C          1.2468678273       -0.0244161775       -0.2148869053
 H          1.6413959770        0.8233113850        0.3193881224
 N          3.3967508023       -1.0753673186        0.0532617678
 S          4.2152585767        0.4011047507        0.0462014574
 O          3.8737469048        1.1354325494        1.2382935964
 O          3.9973127760        1.0825707900       -1.2097760653
 C          5.9023105089       -0.1679654710        0.1551617775
 C          6.6640100650       -0.2593996556       -0.9945067273
 C          7.9646494900       -0.7294502965       -0.9013803473
 C          8.4775939358       -1.1008696088        0.3323000211
 C          7.7011429546       -1.0030187008        1.4776135850
 C          6.4004345197       -0.5327528918        1.3918992850
 H          5.7628458461       -0.4309124065        2.2547385315
 H          8.1043766040       -1.2899379701        2.4353736696
 H          9.4899545431       -1.4661766681        0.4024651765
 H          8.5718132198       -0.8035134869       -1.7891634586
 H          6.2257043041        0.0489096267       -1.9300444900
 H          3.9722952504       -1.8252064012       -0.3048371651
 H          2.2548744288       -3.0746083727       -1.2870870817
 H         -0.0746549307       -3.0996036936       -2.1006338543
 H         -1.5401625490       -1.1526489220       -1.7251348280
 H         -1.2030434564        1.5749793512       -1.4711587864
 C         -0.4130987844        2.2318161162        0.4027645693
 C          0.5328923652        3.2446343089       -0.1674836035
 C         -0.8602588640        3.6483781278        0.2085695688
 H         -1.0005210988        4.2690566552        1.0807155772
 H         -1.5686507741        3.8395628915       -0.5842217308
 H          1.3564331167        3.5804642780        0.4454791569
 H          0.7780894641        3.1641005212       -1.2160997408
 H         -0.2435720878        1.8948289936        1.4201649450
