  62
        -98.94270266
 C         -1.1821755794       -1.6714406910        0.2005242799
 C         -1.6044172503       -0.7882935912        1.2195866397
 C         -2.8443896408       -0.0339648321        0.9692937593
 C         -3.4767270104       -0.1961565227       -0.2057153508
 C         -4.7049571308        0.5201838964       -0.6951869412
 C         -4.3147645815        1.7704115166       -1.5023201613
 C         -4.1428701527        3.0434137168       -0.6755702713
 H         -3.7627612530        3.8168788270       -1.3471073613
 H         -5.1201700730        3.3713507661       -0.3135202816
 C         -3.1911504929        2.9275303976        0.5177856689
 H         -2.8803017537        3.9380965278        0.7924886189
 H         -2.2856501524        2.3941748982        0.2186933292
 C         -3.8357317527        2.2568666172        1.7402137888
 H         -4.9143006226        2.2065977264        1.5904262685
 H         -3.6743722834        2.8833247674        2.6203478788
 C         -3.2960305418        0.8635878277        2.0890556891
 H         -2.4150613420        0.9696977484        2.7302896393
 H         -4.0488440216        0.3292088372        2.6792837190
 H         -5.0838484014        1.9572966259       -2.2549614115
 H         -3.3830575912        1.5535445472       -2.0321366810
 H         -5.3617843212        0.7744356560        0.1313517886
 H         -5.2253493801       -0.1742238741       -1.3582047513
 O         -3.0212373995       -1.0382856125       -1.1744048606
 C         -1.8634129090       -1.7790946016       -1.0110657202
 O         -1.5577013183       -2.4806302715       -1.9942690101
 O         -0.9627453707       -0.6272847306        2.2944452499
 C          0.1103196811       -2.4433547100        0.3843087503
 C          1.1518337510       -1.9675066193       -0.6005878094
 C          2.0971110218       -2.8033667487       -1.1824586191
 C          3.0411667516       -2.2887324781       -2.0547375289
 C          3.0824305707       -0.9372090081       -2.3474487390
 C          2.1437500999       -0.0924794687       -1.7664535294
 C          1.1914331601       -0.6152442493       -0.9077610796
 H          0.4509491195        0.0469576702       -0.4884367698
 N          2.1349636490        1.2860454412       -2.0250036195
 S          1.7100427379        2.3465060411       -0.8019472797
 O          0.2873100579        2.3144191700       -0.5765309201
 O          2.2501554071        3.6182171014       -1.2347747097
 C          2.6123575179        1.7658745619        0.6235895406
 C          3.9852440878        1.9266528029        0.6004374009
 C          4.7394943479        1.4381696435        1.6535874312
 C          4.1116206781        0.7924746132        2.7085338311
 C          2.7340424382        0.6455664822        2.7208468807
 C          1.9725861681        1.1358673415        1.6706058105
 H          0.8996297382        1.0230841007        1.6638136802
 H          2.2354509984        0.1453010919        3.5359079006
 H          4.6975522382        0.4038160237        3.5264606513
 H          5.8109077478        1.5572478543        1.6479076915
 H          4.4339258877        2.4436889231       -0.2322676390
 H          2.9110979889        1.6268896218       -2.5722748593
 H          3.8228267906       -0.5398998476       -3.0244673489
 H          3.7628445422       -2.9505188476       -2.5088722086
 H          2.0890599225       -3.8578718187       -0.9603257790
 H          0.4651052206       -2.1804888796        1.3931668804
 C         -0.1328366478       -3.9369229902        0.3288166404
 C          0.7068895527       -4.8718624095        1.1458776108
 C         -0.7192509876       -4.6180839705        1.5280900003
 H         -1.4462013270       -5.4009292010        1.3724232502
 H         -0.9164661583       -4.0071940706        2.3970581202
 H          0.9592970835       -5.8351063393        0.7288009509
 H          1.4791129922       -4.4406239989        1.7647443309
 H         -0.4684764773       -4.2665074105       -0.6477682196
