  62
        -98.93407985
 C         -2.4514151575       -1.1493715180       -0.2365128361
 C         -2.0684679285        0.2122425960       -0.2776242112
 C         -2.9653554513        1.1625868315        0.4049248760
 C         -4.0654573067        0.7076672248        1.0276748707
 C         -5.0948292209        1.4864559522        1.8079660200
 C         -5.5637807697        2.8262955118        1.2236906108
 C         -5.5964133429        2.8915433287       -0.3102998203
 H         -5.4701295304        1.8922146064       -0.7301269674
 H         -6.5743000172        3.2575783681       -0.6284130618
 C         -4.5335079920        3.8274088912       -0.8909845245
 H         -4.8337587147        4.1156720883       -1.9012253186
 H         -4.5013121058        4.7371935676       -0.2875642120
 C         -3.1253445862        3.2414623616       -0.9873779623
 H         -2.4485512463        4.0409300129       -1.2981800761
 H         -3.0956415065        2.4747302434       -1.7660746910
 C         -2.5820427264        2.6113055683        0.3054990413
 H         -1.4894835000        2.6308148712        0.2596492499
 H         -2.8995070059        3.1715361975        1.1816562169
 H         -4.9304834806        3.6287466516        1.5995305713
 H         -6.5654791849        3.0072304425        1.6171279459
 H         -4.7022526761        1.6528314501        2.8154888284
 H         -5.9477950616        0.8102231807        1.9037251639
 O         -4.3874565208       -0.6169078237        1.0560540396
 C         -3.5961555515       -1.5698560097        0.4424255724
 O         -4.0136142493       -2.7390325309        0.5643905920
 O         -1.0307372604        0.6320583305       -0.8536405681
 C         -1.5980801496       -2.2318231287       -0.8799458609
 C         -0.3109927410       -2.3234095021       -0.0969790241
 C         -0.3011054400       -3.0224699295        1.1069542900
 C          0.8344059837       -3.0556133675        1.8943332984
 C          1.9805210641       -2.3845307823        1.5037704948
 C          1.9762507201       -1.6774390719        0.3097305897
 C          0.8409139520       -1.6620375976       -0.4905452892
 H          0.8463387697       -1.0955490034       -1.4079055425
 N          3.1335060762       -0.9811187516       -0.0942557660
 S          3.8653704185       -0.0146901299        1.0849912605
 O          4.7178546125       -0.8530457272        1.8918867465
 O          2.8676745602        0.7442239122        1.8061217582
 C          4.8607391693        1.0630632041        0.0733659888
 C          6.1697381566        0.7165316350       -0.2009011918
 C          6.9255716709        1.5469104013       -1.0134093798
 C          6.3624125786        2.7013303574       -1.5362295936
 C          5.0466129390        3.0358130517       -1.2520886535
 C          4.2849577625        2.2097811675       -0.4407356947
 H          3.2606370970        2.4357967259       -0.1878644631
 H          4.6109685010        3.9344170083       -1.6586400046
 H          6.9521514905        3.3467565474       -2.1678468549
 H          7.9491165729        1.2917927767       -1.2356128390
 H          6.5649206908       -0.1866906947        0.2336645249
 H          2.9550880318       -0.4326572097       -0.9257630504
 H          2.8668115378       -2.3814188053        2.1178543438
 H          0.8272147991       -3.6017560395        2.8259631208
 H         -1.2048017375       -3.5239881933        1.4260100839
 H         -2.1490643335       -3.1712976517       -0.7407015388
 C         -1.4050510451       -1.9943476962       -2.3628280808
 C         -0.8921760228       -3.1093791200       -3.2223188975
 C         -2.3205466608       -2.6710475966       -3.3363268874
 H         -2.6255219854       -2.1282216431       -4.2184933092
 H         -3.0884480660       -3.3160093192       -2.9345604845
 H         -0.2155915396       -2.8712835388       -4.0286582563
 H         -0.6885147457       -4.0538480957       -2.7408147210
 H         -1.0940977926       -0.9847142512       -2.5998317860
