  62
        -98.93475598
 C         -1.7641720466       -1.1845488854        0.7574526380
 C         -3.0524524743       -1.2620146233        0.1728287538
 C         -3.9530958546       -0.1324260962        0.4705811955
 C         -3.5214237078        0.8886225006        1.2306873495
 C         -4.3189264992        2.1178731204        1.5552087782
 C         -4.0815134994        3.2271503983        0.5207419632
 C         -4.2087237437        2.7580936664       -0.9285910920
 H         -4.0493301718        3.6292937584       -1.5674762196
 H         -3.4070478203        2.0485821943       -1.1455117336
 C         -5.5598504366        2.1146808748       -1.2702810430
 H         -5.9061296913        2.5130281883       -2.2263190835
 H         -6.3013248707        2.3881060647       -0.5186155633
 C         -5.5200612775        0.5919528740       -1.4111892938
 H         -4.7184428888        0.3075774079       -2.0972316687
 H         -6.4631550673        0.2674260389       -1.8589445290
 C         -5.3395867271       -0.1950976231       -0.1070144988
 H         -6.0771745207        0.1349583384        0.6273045468
 H         -5.5238269335       -1.2502208737       -0.3295239537
 H         -3.0748568327        3.6255453459        0.6658437223
 H         -4.7949344843        4.0315847219        0.7087863461
 H         -4.0103221694        2.4774025122        2.5383952112
 H         -5.3755688333        1.8595541385        1.5900793327
 O         -2.2695149985        0.9383208180        1.7561280099
 C         -1.3676177721       -0.0835446147        1.5237016896
 O         -0.2483783310        0.0912793570        2.0475879531
 O         -3.4575134603       -2.2020366419       -0.5554447626
 C         -0.6687692845       -2.2267773846        0.5806220489
 C          0.3992526510       -1.6657033442       -0.3236511418
 C          0.0636393213       -0.9953847293       -1.4953977474
 C          1.0422429204       -0.4325036899       -2.2938223554
 C          2.3755604239       -0.5207768742       -1.9325267827
 C          2.7212172414       -1.1973670542       -0.7718118822
 C          1.7387320290       -1.7717332560        0.0208077815
 H          2.0215365962       -2.2627327393        0.9425210722
 N          4.0954133474       -1.2269052300       -0.3931219713
 S          4.4500424216       -0.0265996893        0.7466739611
 O          5.8924278990        0.0846778625        0.7680963919
 O          3.8452510619       -0.3476656761        2.0221809641
 C          3.7253203744        1.4313589330        0.0370552610
 C          4.4805124468        2.1723194515       -0.8511040098
 C          3.9137403691        3.2897352780       -1.4418335663
 C          2.6064521190        3.6400119200       -1.1388847077
 C          1.8637532260        2.8840440795       -0.2448302900
 C          2.4232017700        1.7657914279        0.3536151920
 H          1.8631908296        1.1580851907        1.0494329531
 H          0.8460441702        3.1513349373       -0.0075373633
 H          2.1616546630        4.5076852221       -1.6002226726
 H          4.4889005310        3.8812877132       -2.1357191157
 H          5.4921962542        1.8596815851       -1.0517128230
 H          4.3614339740       -2.1134968848        0.0175233760
 H          3.1491387574       -0.0707919169       -2.5326957425
 H          0.7647447735        0.0883993671       -3.1970966671
 H         -0.9801601639       -0.9110006138       -1.7638894404
 H         -0.2104481245       -2.3506356890        1.5773443616
 C         -1.1539065670       -3.5977366563        0.1391729204
 C         -1.0213891708       -4.0997170646       -1.2635961415
 C         -0.1606895788       -4.6754996208       -0.1815826340
 H         -0.3602318054       -5.6786227797        0.1635204739
 H          0.8858849341       -4.4088027333       -0.1812489197
 H         -1.8311589727       -4.6928157352       -1.6591948096
 H         -0.5552336612       -3.4566395987       -1.9937508640
 H         -2.0434730049       -3.9049986477        0.6766332822
