  62
        -98.93929246
 C          2.0206419804        0.8887064969        0.0224765822
 C          2.3207491769       -0.0898306491        0.9948238212
 C          2.3659498603       -1.4876920320        0.5346933523
 C          2.1130835169       -1.7638434142       -0.7585078029
 C          2.0169384808       -3.0844254196       -1.4948768921
 C          2.5378633345       -4.3732250556       -0.8641602843
 C          4.0553065296       -4.4323395323       -0.6914989138
 H          4.5143511032       -4.5001990470       -1.6808090434
 H          4.3009863753       -5.3458699496       -0.1459644068
 C          4.6825669483       -3.2403689451        0.0266807799
 H          4.5251975040       -2.3338234361       -0.5611300465
 H          5.7614404493       -3.4098686543        0.0768778720
 C          4.1841546811       -2.9993721297        1.4501734579
 H          4.8226368336       -2.2327080420        1.8969966931
 H          4.2947161355       -3.9119872545        2.0388315138
 C          2.7289195873       -2.5132850923        1.5700645871
 H          2.6141039868       -2.0200446054        2.5400049926
 H          2.0269737621       -3.3440516593        1.5466555272
 H          2.2495734700       -5.1859325049       -1.5364847483
 H          2.0374866607       -4.5557821825        0.0823494269
 H          2.5180183030       -2.9268076805       -2.4554685542
 H          0.9514925151       -3.2108081685       -1.7198514744
 O          1.8342461069       -0.7815430059       -1.6650665997
 C          1.7584192005        0.5512246873       -1.3039239622
 O          1.4754060409        1.3236058901       -2.2403726515
 O          2.5319686488        0.1907075284        2.2076262980
 C          1.8788856604        2.3394414194        0.4443975769
 C          0.4772899563        2.8084052416        0.1369846231
 C          0.1862536110        4.0409754460       -0.4327105690
 C         -1.1223314221        4.3820356165       -0.7297311406
 C         -2.1597112390        3.5032196912       -0.4805118576
 C         -1.8802164234        2.2752266663        0.1098014431
 C         -0.5745291538        1.9505509420        0.4337533991
 H         -0.3710918782        0.9924910768        0.8915155976
 N         -2.9076090486        1.3593800150        0.4001339805
 S         -2.5566483354       -0.2888968950        0.2755888884
 O         -1.9484162610       -0.7270807690        1.5080464802
 O         -1.8219834956       -0.5644277811       -0.9386615117
 C         -4.2098355661       -0.9500013889        0.1624166207
 C         -4.9450553165       -1.1031549660        1.3228613959
 C         -6.2426322771       -1.5818965700        1.2353211162
 C         -6.7809318553       -1.8971104650       -0.0036116283
 C         -6.0304238744       -1.7403346334       -1.1591552671
 C         -4.7323910480       -1.2603999837       -1.0787518396
 H         -4.1074541730       -1.1289173722       -1.9478215781
 H         -6.4494977210       -1.9892004266       -2.1207542579
 H         -7.7907303516       -2.2701071761       -0.0691223733
 H         -6.8278712099       -1.7075867234        2.1318393017
 H         -4.4801182229       -0.8541196555        2.2623689431
 H         -3.7755673804        1.5865073962       -0.0666843316
 H         -3.1755464451        3.7602929006       -0.7393762602
 H         -1.3343586932        5.3396280864       -1.1806708060
 H          0.9849095983        4.7282442658       -0.6590116864
 H          2.0154011381        2.3438264978        1.5366642264
 C          2.9565715564        3.1943792370       -0.1884510751
 C          3.4604082738        4.4202759101        0.5116274947
 C          4.3256239935        3.2005752440        0.4206765426
 H          5.1818610873        3.2198272042       -0.2366023300
 H          4.4719195179        2.6067724211        1.3112032306
 H          3.7271208946        5.2804689811       -0.0836247075
 H          3.0264825340        4.6616801041        1.4701111925
 H          2.8889473473        3.2091772951       -1.2706061466
