  62
        -98.94267071
 C         -2.7128482397       -1.2143698373        0.1644301207
 C         -2.6051660355       -0.3071100877       -0.9174769266
 C         -3.6063810987        0.7695277364       -0.9505857881
 C         -4.5571619717        0.8193936217       -0.0004281928
 C         -5.5909796929        1.8999784203        0.1231271506
 C         -5.0951254420        3.0370648568        1.0279733496
 C         -3.6933748778        3.5388214811        0.6802634526
 H         -2.9698940545        2.7440339304        0.8771050809
 H         -3.4632601095        4.3581973522        1.3647057530
 C         -3.5326142947        4.0223006207       -0.7678515551
 H         -2.9824255951        4.9655246218       -0.7626364411
 H         -4.5127429938        4.2215238361       -1.2027233145
 C         -2.7615125277        3.0621019033       -1.6755176171
 H         -1.8174257081        2.7851167646       -1.1991708153
 H         -2.5191196852        3.5904290491       -2.6014293839
 C         -3.4999144800        1.7745951623       -2.0626990070
 H         -2.9234025527        1.2860419901       -2.8536502131
 H         -4.4874066358        2.0197779352       -2.4585625189
 H         -5.0832332892        2.6778068734        2.0596309087
 H         -5.8055391497        3.8632969072        0.9642820103
 H         -5.8275725663        2.2855054982       -0.8665667026
 H         -6.4923362510        1.4667328443        0.5597381458
 O         -4.6509703879       -0.0927252907        1.0008788189
 C         -3.7219839441       -1.1111906903        1.1239872289
 O         -3.9009215514       -1.8532591426        2.1107371775
 H          0.5129164640       -1.9514394856       -1.2624641161
 C          0.6468932023       -1.5502704823       -0.2705984136
 C         -0.3639918968       -1.6766621892        0.6675582284
 C         -0.1678025350       -1.1369434587        1.9365946046
 C          1.0077703048       -0.4832834718        2.2510268198
 C          2.0080852999       -0.3402884279        1.3041703916
 C          1.8231017600       -0.8750221757        0.0370074916
 N          2.8092460162       -0.7050675756       -0.9427761667
 S          4.4319613796       -0.8057502339       -0.5620331068
 O          5.0946936057       -1.0797084238       -1.8182825893
 O          4.6727642078       -1.7481763493        0.5061932436
 C          4.8535279703        0.8408523446       -0.0298765349
 C          4.4648305408        1.9035658519       -0.8216515721
 C          4.7973085188        3.1893770323       -0.4263642825
 C          5.5124169549        3.3900272116        0.7449777278
 C          5.8990055497        2.3125054438        1.5268903523
 C          5.5680814528        1.0237709920        1.1377394113
 H          5.8412901587        0.1570615792        1.7184870886
 H          6.4547501395        2.4705504207        2.4371886740
 H          5.7689987389        4.3922243428        1.0501657705
 H          4.4967231811        4.0296177814       -1.0314853937
 H          3.9096298742        1.7082552150       -1.7240840967
 H          2.5919302903       -1.1193464594       -1.8361994715
 H          2.9246541245        0.1743978537        1.5415761877
 H          1.1467158073       -0.0730723647        3.2398669710
 H         -0.9575004100       -1.2323815879        2.6696199945
 C         -1.6910239905       -2.3245659794        0.3541405103
 H         -2.0143005424       -2.8847169889        1.2418639867
 C         -1.6591851028       -3.2672517294       -0.8297165817
 C         -1.0022042863       -4.6062325924       -0.6855886610
 C         -2.4937734434       -4.5104501025       -0.7949674376
 H         -2.9664426038       -4.8390671679       -1.7084334228
 H         -3.0851469470       -4.6904491687        0.0909974627
 H         -0.5782572482       -4.8520667717        0.2764976023
 H         -0.4497572943       -5.0049593096       -1.5230014184
 H         -1.5733517649       -2.7577033568       -1.7814681867
 O         -1.7244008035       -0.3820802530       -1.8135571812
