  62
        -98.94324725
 C          1.8803647594        0.8361023479        0.6390513959
 C          2.2849559278        0.4348405579       -0.6572800199
 C          3.7329538304        0.4669936972       -0.9106169511
 C          4.5633757999        0.8972217924        0.0568298874
 C          6.0603293623        0.9260584685       -0.0473981960
 C          6.6762159985       -0.3798980947        0.4741065541
 C          6.0275755959       -1.6398895943       -0.0993270807
 H          6.5615998933       -2.4978962483        0.3149204709
 H          4.9958665288       -1.7030738785        0.2545626468
 C          6.0416819154       -1.7196142137       -1.6322789829
 H          6.7843556720       -1.0281228467       -2.0318627262
 H          6.3447111919       -2.7264771908       -1.9272881658
 C          4.6891626660       -1.4490771293       -2.2943268015
 H          4.7604620515       -1.7444714938       -3.3444806544
 H          3.9217475398       -2.0741803981       -1.8304625687
 C          4.2083174056        0.0072438036       -2.2600464419
 H          3.3428607327        0.0865164310       -2.9242272011
 H          4.9943882461        0.6638067757       -2.6382296813
 H          7.7420313520       -0.3778199360        0.2387161224
 H          6.5684942445       -0.4037043699        1.5611109536
 H          6.4311959311        1.7576185727        0.5541376734
 H          6.3450261135        1.0855865302       -1.0854365636
 O          4.1318262088        1.3128402401        1.2756523989
 C          2.7862199950        1.2755012925        1.6033395288
 O          2.5272885197        1.6517142538        2.7651547806
 O          1.4825521050        0.0649225464       -1.5528428994
 C          0.4105200335        0.8063246458        1.0114266653
 C         -0.1715723848       -0.5737166221        0.8197452883
 C          0.5987973060       -1.6964282831        1.1100384163
 C          0.0877959515       -2.9685199543        0.9429872643
 C         -1.2139250006       -3.1502847124        0.5105239742
 C         -2.0010041916       -2.0382512758        0.2425800097
 C         -1.4770499394       -0.7610767945        0.3907048779
 H         -2.1042977919        0.0878494012        0.1743785235
 N         -3.3277168556       -2.1828037666       -0.1926925753
 S         -4.5158119931       -1.2161514058        0.4836827126
 O         -4.2054912836       -0.8722449220        1.8516869103
 O         -5.7474795227       -1.9493799063        0.2783507416
 C         -4.5558055357        0.2506315621       -0.5243986182
 C         -4.3470485985        0.1442590186       -1.8852539302
 C         -4.4322845183        1.2863874548       -2.6654814174
 C         -4.7334751036        2.5062708940       -2.0786577734
 C         -4.9457842382        2.5953033651       -0.7116015910
 C         -4.8563085871        1.4574915452        0.0753944097
 H         -5.0005302618        1.4844094729        1.1436321607
 H         -5.1780435304        3.5444930763       -0.2551744852
 H         -4.8005384625        3.3929239396       -2.6892746528
 H         -4.2635862766        1.2219111189       -3.7284244364
 H         -4.1121232765       -0.8175777326       -2.3094019963
 H         -3.6399862231       -3.1386961195       -0.2861883421
 H         -1.6162510281       -4.1439655734        0.3834960884
 H          0.7049429820       -3.8277287638        1.1597863023
 H          1.6124959537       -1.5590452054        1.4618827459
 H          0.3608879907        1.0467545425        2.0844245239
 C         -0.3339186843        1.8776222996        0.2389432522
 C         -1.5027201023        2.5887602509        0.8496025404
 C         -0.1977345516        3.3042850922        0.6758715117
 H         -0.1257453110        4.0713899409       -0.0801723392
 H          0.4043467357        3.4962451688        1.5523567187
 H         -2.3263854392        2.8657894317        0.2088535314
 H         -1.7983251196        2.3026163813        1.8482054001
 H         -0.3550378410        1.6787263244       -0.8265017270
