  62
        -98.94020832
 C          2.4909944103        1.1480520202        0.0067701794
 C          2.6106412099       -0.0012916703       -0.8109108999
 C          3.9767622297       -0.5116330208       -0.9984328999
 C          5.0072006100        0.1318976193       -0.4200257205
 C          6.4388812599       -0.3144058811       -0.4794345405
 C          6.7822118599       -1.2334872105        0.7015605000
 C          5.7758760896       -2.3637164201        0.9182484809
 H          6.1346553796       -2.9616844597        1.7587906111
 H          4.8158938798       -1.9352071997        1.2154773508
 C          5.5673115492       -3.2707230407       -0.3024625586
 H          5.5739093290       -4.3111219806        0.0291169220
 H          6.3957280491       -3.1479414514       -1.0010203188
 C          4.2459984591       -3.0470706509       -1.0404193485
 H          4.1037703188       -3.8734818012       -1.7418819880
 H          3.4169936692       -3.0760362902       -0.3284887983
 C          4.1433091493       -1.7436749713       -1.8426200892
 H          5.0082781492       -1.6467237119       -2.5018409494
 H          3.2432252691       -1.8048207915       -2.4614400190
 H          6.8188431402       -0.6290441999        1.6107965397
 H          7.7748210997       -1.6550844508        0.5334351401
 H          6.6133611496       -0.8328859317       -1.4200814902
 H          7.0768636801        0.5698843688       -0.4378457511
 O          4.8533733004        1.2478507198        0.3384721189
 C          3.5959632305        1.7742176002        0.5827928488
 O          3.5929427209        2.7824203207        1.3182200782
 H         -1.4211828898        0.9022488608       -0.4514088998
 C         -1.0323663398        0.3944214012        0.4149679605
 C          0.2269357204        0.6950316812        0.9070289301
 C          0.6843807304        0.0121850218        2.0320002304
 C         -0.0954963697       -0.9520684077        2.6391688411
 C         -1.3539644499       -1.2486362077        2.1454412115
 C         -1.8201342999       -0.5735780682        1.0241123012
 N         -3.0799152001       -0.8763638482        0.4835962816
 S         -3.9882529999        0.3568078716       -0.2232325390
 O         -3.5355675701        0.5652142807       -1.5751777892
 O         -3.9974781295        1.5202500421        0.6353345004
 C         -5.5975383301       -0.4122659380       -0.2408729682
 C         -5.8924615805       -1.3069203786       -1.2524151677
 C         -7.1288576507       -1.9326935183       -1.2537532771
 C         -8.0444104104       -1.6560974175       -0.2490779471
 C         -7.7352069400       -0.7544426070        0.7581265424
 C         -6.4998007899       -0.1258936572        0.7661230818
 H         -6.2189221796        0.5879171231        1.5237572813
 H         -8.4503807698       -0.5392699263        1.5356155924
 H         -9.0060134605       -2.1445195272       -0.2528776366
 H         -7.3738718610       -2.6319421387       -2.0368872666
 H         -5.1527335107       -1.4834982592       -2.0159134177
 H         -3.6435250401       -1.4502372077        1.0957745520
 H         -1.9644338600       -2.0027627672        2.6185268820
 H          0.2753656103       -1.4740647073        3.5086654713
 H          1.6661794205        0.2495894418        2.4204267401
 C          1.1202550605        1.7393161507        0.2823946893
 H          1.2750463908        2.5398009211        1.0213990888
 C          0.5476441404        2.3497163401       -0.9791439210
 C         -0.4581371393        3.4563531603       -0.8887494714
 C          0.9355272307        3.7461128697       -1.3574165918
 H          1.0925281205        3.9729422391       -2.4011955920
 H          1.6013757209        4.2732585700       -0.6894777723
 H         -0.7459656291        3.7903944010        0.0970489484
 H         -1.2641768794        3.4785327501       -1.6073209013
 H          0.4366876801        1.6270470996       -1.7801711405
 O          1.6310150096       -0.5749474804       -1.3548961794
