  62
        -98.94269149
 C         -2.1469770069       -0.8825916901        0.1615792126
 C         -2.6839494003       -0.0210440268        1.1465468809
 C         -3.0662595681        1.3208498817        0.6883160139
 C         -2.8466076974        1.6642502078       -0.5942895949
 C         -3.2195246918        2.9844602521       -1.2028013448
 C         -4.6290153897        2.9402759780       -1.8094608434
 C         -5.6867766987        2.3600897032       -0.8705402348
 H         -6.6447442622        2.4066153353       -1.3926759472
 H         -5.4663507095        1.3045426642       -0.6958054035
 C         -5.8036603225        3.0835019497        0.4783380611
 H         -5.3416696260        4.0690327164        0.4109371642
 H         -6.8612870518        3.2353561226        0.7033617244
 C         -5.2021081159        2.3219342517        1.6608178540
 H         -5.5914603673        1.3009047368        1.6749463388
 H         -5.5298355984        2.8104627403        2.5821915514
 C         -3.6701990222        2.2532924245        1.7008623943
 H         -3.2529109513        3.2571371829        1.5974199677
 H         -3.3801882402        1.8597350332        2.6796599378
 H         -4.5971159828        2.3259133625       -2.7122034696
 H         -4.9114904531        3.9542600867       -2.0981924626
 H         -2.4986059164        3.2133157540       -1.9898090154
 H         -3.1645744135        3.7582864473       -0.4393655110
 O         -2.2935716701        0.8216126822       -1.5043344518
 C         -1.9319355554       -0.4707675071       -1.1541913677
 O         -1.4412018110       -1.1381798504       -2.0845425734
 O         -2.8255508254       -0.3554868965        2.3545623506
 C         -1.7155367887       -2.2823731300        0.5617150688
 C         -0.2406308278       -2.4504693919        0.2896209214
 C          0.3064246613       -3.5575456020       -0.3449271015
 C          1.6654356398       -3.6193097894       -0.6041703405
 C          2.5068579603       -2.5855782326       -0.2368830651
 C          1.9715328892       -1.4821426377        0.4120791615
 C          0.6145395338       -1.4271753832        0.6798802458
 H          0.2037565955       -0.5561120844        1.1779456691
 N          2.8248096714       -0.4094364261        0.7752950338
 S          3.2859306896        0.5949039732       -0.5085582364
 O          2.4145094043        1.7531161481       -0.5387844404
 O          3.3770401458       -0.1856017962       -1.7149389105
 C          4.9164845101        1.0889042697        0.0155949757
 C          5.0990147175        2.3098014071        0.6343330256
 C          6.3686901980        2.6586119335        1.0679948646
 C          7.4269950918        1.7828662647        0.8805971788
 C          7.2276452704        0.5595916970        0.2578523312
 C          5.9610877941        0.2062339666       -0.1784089463
 H          5.7603099016       -0.7284823270       -0.6752038078
 H          8.0531564158       -0.1182231423        0.1118330329
 H          8.4136677313        2.0562957884        1.2197635213
 H          6.5263548328        3.6101336997        1.5498684479
 H          4.2488691169        2.9622841116        0.7517636991
 H          2.3896747940        0.1849656573        1.4696157278
 H          3.5606224767       -2.6120939153       -0.4591332508
 H          2.0718487636       -4.4824796915       -1.1090413953
 H         -0.3345470508       -4.3673534618       -0.6530641092
 H         -1.8761832667       -2.3399133515        1.6488938951
 C         -2.5815610683       -3.3229964900       -0.1157050507
 C         -2.8238722143       -4.6484741530        0.5407416716
 C         -3.9256504804       -3.6357930881        0.4683447761
 H         -4.7509493197       -3.8147449139       -0.2042970451
 H         -4.2048940535       -3.1155726568        1.3730472312
 H         -2.8957799413       -5.5266339235       -0.0828945259
 H         -2.3595831293       -4.8232781846        1.4993525566
 H         -2.4994969677       -3.2900395957       -1.1965248872
