  62
        -98.94354012
 C         -1.4956084538       -1.3790632964        0.6116388865
 C         -2.4877809824       -1.1950651078       -0.3819066245
 C         -3.4504197338       -0.1100966032       -0.1297014572
 C         -3.3078194551        0.6686725880        0.9573583205
 C         -4.2092697964        1.8146275182        1.3159623517
 C         -3.7175298657        3.1415598213        0.7215060178
 C         -3.3434748305        3.0540577328       -0.7578592799
 H         -3.0137995354        4.0471784642       -1.0709826356
 H         -2.4946928987        2.3765381579       -0.8739531767
 C         -4.4852096571        2.5845570555       -1.6698889931
 H         -5.4410773754        2.6962054746       -1.1565054436
 H         -4.5158482505        3.2258101114       -2.5533241599
 C         -4.3441453742        1.1451535798       -2.1677470025
 H         -3.3518370200        1.0014651781       -2.6022899202
 H         -5.0758423386        0.9882659790       -2.9648125064
 C         -4.5729575474        0.0521186737       -1.1162875118
 H         -5.5173139443        0.2326453002       -0.5983686003
 H         -4.6485552059       -0.9032699108       -1.6436228906
 H         -4.4997725196        3.8908122600        0.8567018976
 H         -2.8408040877        3.4685740066        1.2851632254
 H         -5.2141054937        1.5977892442        0.9577367308
 H         -4.2349750764        1.9014424757        2.4036134613
 O         -2.2941397666        0.5127153021        1.8468721574
 C         -1.3763519926       -0.5118094267        1.7023231440
 O         -0.5113115532       -0.5544293442        2.5998070539
 H          1.9542434391       -1.6625724939        1.3844317777
 C          1.8760910769       -1.6229149229        0.3060831455
 C          0.6981976041       -2.0301364181       -0.3040828628
 C          0.5972855545       -1.9387553927       -1.6880533931
 C          1.6564623634       -1.4575484622       -2.4366156951
 C          2.8312613959       -1.0541853118       -1.8250915446
 C          2.9360355674       -1.1336330152       -0.4435915261
 N          4.1167915419       -0.6842034493        0.1897976868
 S          4.4373662230        0.9490213426       -0.0211952217
 O          4.9446876383        1.1614424430       -1.3525448083
 O          5.3200600239        1.3162795157        1.0624197795
 C          2.8448455481        1.7304408049        0.1623895941
 C          2.1381556416        2.1133284111       -0.9591678244
 C          0.8663036600        2.6384981655       -0.7988050789
 C          0.3266041109        2.7637424964        0.4715853474
 C          1.0469501484        2.3711293433        1.5884390364
 C          2.3184032485        1.8451844164        1.4334529730
 H          2.9084303002        1.5326967097        2.2803145174
 H          0.6151003078        2.4540739936        2.5728699039
 H         -0.6654318749        3.1682091098        0.5941021648
 H          0.2972528039        2.9427381025       -1.6629215355
 H          2.5946058048        1.9979585912       -1.9284999720
 H          4.1351421196       -0.8992846854        1.1773483618
 H          3.6603962279       -0.6623146887       -2.3918446727
 H          1.5656265679       -1.3910420390       -3.5101662843
 H         -0.3273447045       -2.2214226676       -2.1667776988
 C         -0.4556877664       -2.4890838071        0.5528476897
 H         -0.0821602377       -2.5978940766        1.5800934628
 C         -1.0092279617       -3.8263696258        0.1064195647
 C         -0.2234437847       -5.0658579000        0.4073986974
 C         -1.5039229436       -4.7938891570        1.1371655553
 H         -2.3698005160       -5.3954218664        0.9047210333
 H         -1.4467003530       -4.4962147671        2.1743742599
 H          0.7032527305       -4.9520349828        0.9499165917
 H         -0.2071773594       -5.8563208134       -0.3269759728
 H         -1.5475477565       -3.7865452225       -0.8301988092
 O         -2.5954858016       -1.8927362094       -1.4237337354
