  62
        -98.94319216
 C          0.8239075597        1.6921468794       -0.8319383516
 C          1.9682632485        2.0612516384       -0.0783017704
 C          3.1157086119        1.1516091313       -0.1462605893
 C          3.0412527356        0.0446523607       -0.9069229888
 C          4.1345843661       -0.9710842441       -1.1005680255
 C          4.2114116311       -2.0288683137        0.0084830580
 C          4.7533128334       -1.5325472479        1.3491840319
 H          4.9599471747       -2.4146752391        1.9583756995
 H          5.7017445160       -1.0179518065        1.1919956141
 C          3.7891154390       -0.6172377042        2.1168046645
 H          2.7819788001       -0.7201226787        1.7056925961
 H          3.7421011293       -0.9298844982        3.1623157526
 C          4.1776820718        0.8611416655        2.1038087911
 H          5.1234800844        0.9975178556        2.6332303265
 H          3.4080522068        1.4238740402        2.6384800501
 C          4.3134109344        1.4632974830        0.6992890108
 H          4.3776197979        2.5499198051        0.7965430202
 H          5.2227539670        1.1008738136        0.2201001389
 H          4.8642443282       -2.8283241349       -0.3491922656
 H          3.2141441420       -2.4458814646        0.1558502820
 H          5.0944473283       -0.4606628207       -1.1873278723
 H          3.9236078112       -1.4764351214       -2.0452022371
 O          1.9364396203       -0.2666614642       -1.6319035041
 C          0.7959791505        0.5316306221       -1.6072707290
 O         -0.1268773749        0.0944813404       -2.3166222883
 O          2.0285347531        3.1143782559        0.6120273671
 C         -0.3776201084        2.6129354630       -0.7211788795
 C         -1.2572662945        2.1992895633        0.4314950591
 C         -1.7080959103        3.1355628601        1.3550349124
 C         -2.5131375447        2.7494742123        2.4118603560
 C         -2.8935188618        1.4278833571        2.5582234210
 C         -2.4444562534        0.4826230408        1.6426008815
 C         -1.6225203915        0.8704218105        0.5946632619
 H         -1.2770548768        0.1311061585       -0.1112443942
 N         -2.7902602721       -0.8692753038        1.7731837905
 S         -3.1070410741       -1.7762490647        0.3992752632
 O         -3.7224116252       -0.9724599493       -0.6298429627
 O         -3.9023597259       -2.8856696147        0.8872687196
 C         -1.5295985658       -2.4129810642       -0.1164325820
 C         -0.6549757682       -2.8644034298        0.8526878465
 C          0.5413363972       -3.4385988236        0.4568835811
 C          0.8379768912       -3.5562350068       -0.8933992748
 C         -0.0499455527       -3.0963479814       -1.8515142541
 C         -1.2484966505       -2.5191158396       -1.4627046286
 H         -1.9546063759       -2.1311746984       -2.1788628528
 H          0.1872028817       -3.1711754211       -2.9003691777
 H          1.7678500760       -4.0078982334       -1.2029052913
 H          1.2361923462       -3.7947740272        1.2015540060
 H         -0.9200276314       -2.7570990005        1.8916700821
 H         -3.4404114468       -1.0760442125        2.5176455720
 H         -3.5286481272        1.1248958424        3.3766963273
 H         -2.8540133253        3.4847987663        3.1247510894
 H         -1.4115245648        4.1685331445        1.2470777228
 H          0.0443952805        3.6001181213       -0.4713780153
 C         -1.1534257614        2.7747161800       -2.0196380200
 C         -2.4519671950        2.0898781302       -2.3082962328
 C         -2.4294041043        3.5639761277       -2.0435583390
 H         -2.6048336563        4.2405609953       -2.8663516244
 H         -2.8218964753        3.9059159321       -1.0976487897
 H         -2.6158397755        1.7456825604       -3.3184844601
 H         -2.8731974589        1.4288369949       -1.5660861027
 H         -0.4871332132        2.9035347528       -2.8673726459
