  62
        -98.94385718
 C          1.2964083407        1.4198037894        0.6220601446
 C          2.0836180070        1.0106219986       -0.4830137895
 C          3.0986181949       -0.0164282240       -0.2028976077
 C          3.2142535672       -0.5166448578        1.0395207681
 C          4.1739051391       -1.5957368455        1.4473193440
 C          3.5324498502       -2.9857029185        1.3379522152
 C          2.8341487109       -3.2496800585        0.0031902337
 H          1.9483443066       -2.6135498101       -0.0768617034
 H          2.4707794483       -4.2799958858        0.0285877657
 C          3.7241880919       -3.0546292422       -1.2323168791
 H          3.5464890779       -3.8840811713       -1.9202274354
 H          4.7749523018       -3.0934073771       -0.9412182425
 C          3.4597829210       -1.7664819779       -2.0143332498
 H          2.3869800202       -1.6717570207       -2.2044725784
 H          3.9591800707       -1.8489757973       -2.9836584515
 C          3.9495933287       -0.4713056790       -1.3542194947
 H          3.8938776756        0.3244722057       -2.1028393999
 H          4.9914599943       -0.5842858658       -1.0474482749
 H          2.7900979184       -3.0904742689        2.1328127327
 H          4.3095934837       -3.7361333709        1.4970402521
 H          5.0601721868       -1.5428663369        0.8179117291
 H          4.4650443209       -1.4224307238        2.4850599755
 O          2.4275594007       -0.1169743239        2.0709056386
 C          1.4268110966        0.8217804616        1.8770727217
 O          0.7256362046        1.0357079197        2.8874096442
 H         -0.6173549941       -0.0454611899       -0.1065189255
 C         -1.0293780133        0.6513810370       -0.8193238144
 C         -0.7032121408        1.9969762926       -0.7157438609
 C         -1.2049786087        2.8726231728       -1.6689266854
 C         -2.0022967948        2.3986983684       -2.6975866852
 C         -2.3275130867        1.0578686570       -2.7925352026
 C         -1.8258093006        0.1727769701       -1.8442188698
 N         -2.1056882928       -1.1993562173       -1.9031344666
 S         -2.1422793516       -2.1188079281       -0.5119010681
 O         -0.8096547220       -2.3273558489       -0.0031963861
 O         -2.8630268423       -3.3132599103       -0.8983124614
 C         -3.1268931236       -1.1755317727        0.6393963223
 C         -2.5628496806       -0.6265372750        1.7722925126
 C         -3.3566543169        0.1366545242        2.6146097326
 C         -4.6947926894        0.3343995037        2.3134762283
 C         -5.2510860340       -0.2335155678        1.1768876196
 C         -4.4614328298       -0.9931193999        0.3302163533
 H         -4.8598134767       -1.4593147215       -0.5561330226
 H         -6.2938139313       -0.0833802266        0.9483195982
 H         -5.3062736392        0.9321160315        2.9707380899
 H         -2.9144576369        0.5756047599        3.4950673647
 H         -1.5173654296       -0.7897794979        1.9857099807
 H         -2.7979625274       -1.4793149533       -2.5808054459
 H         -2.9460654130        0.6942550001       -3.5983993915
 H         -2.3784748624        3.0873997377       -3.4388226991
 H         -0.9565273353        3.9200901152       -1.6228003413
 C          0.1526657443        2.4067193091        0.4596238141
 H         -0.4610151959        2.2708703062        1.3668057022
 C          0.5654120680        3.8712805461        0.4375950964
 C          1.8958330987        4.3128903353        0.9688183695
 C          1.6103437986        4.3957695231       -0.4991291440
 H          1.4622608239        5.3725525955       -0.9362708112
 H          2.0860292720        3.6861848891       -1.1567454249
 H          2.5763871214        3.5475812524        1.3140735816
 H          1.9410094316        5.2276782278        1.5408996753
 H         -0.2708622774        4.5305165184        0.6488303254
 O          1.9546107660        1.4681164412       -1.6477057205
