  62
        -98.94188415
 C         -1.2029654232       -0.9359871186        0.3932042121
 C         -2.0756802839       -0.6759341706       -0.6866598044
 C         -3.0914625048        0.3763969218       -0.4809907826
 C         -3.0963357622        1.0562212481        0.6807132913
 C         -4.0539760219        2.1300673307        1.1232786197
 C         -5.4197292151        1.5661781392        1.5516512322
 C         -5.9785783460        0.4704351814        0.6471097305
 H         -6.8749610709        0.0691718641        1.1271899523
 H         -5.2540407978       -0.3432194653        0.5810212525
 C         -6.3648763130        0.9211274382       -0.7594294114
 H         -7.1347374831        1.6929028447       -0.6890420374
 H         -6.8036125428        0.0592062874       -1.2684834681
 C         -5.2236842936        1.4554800086       -1.6264916202
 H         -4.9459668207        2.4630563746       -1.3285899495
 H         -5.5994412800        1.5280939759       -2.6514777796
 C         -3.9885533235        0.5612931889       -1.6812965494
 H         -3.3333952102        0.9221816769       -2.4840903068
 H         -4.2901890104       -0.4468848934       -1.9874616482
 H         -6.1307329917        2.3918845159        1.6102769101
 H         -5.3088938188        1.1443437194        2.5535141344
 H         -3.5952271607        2.6249550406        1.9824042205
 H         -4.1657397087        2.8729638907        0.3388041071
 O         -2.1995078600        0.8044522403        1.6770266786
 C         -1.2316608971       -0.1722415988        1.5585365480
 O         -0.4650662790       -0.2665897650        2.5402667404
 H          0.8151509078        0.4209525000       -0.2616600396
 C          1.2504945125       -0.3174963572       -0.9171791589
 C          0.8466497765       -1.6417527731       -0.8207318938
 C          1.3970184347       -2.5665612834       -1.6991423422
 C          2.3170502523       -2.1625352605       -2.6515631493
 C          2.7301473695       -0.8447551630       -2.7307818872
 C          2.1896185151        0.0864034294       -1.8514710075
 N          2.5819893148        1.4338641336       -1.8778621901
 S          2.7262033172        2.2599057754       -0.4291556292
 O          1.4256683928        2.6232804702        0.0761449581
 O          3.6100991395        3.3644958509       -0.7382937153
 C          3.5545628573        1.1163066344        0.6620203054
 C          2.8845988492        0.5066471089        1.7025016996
 C          3.5643214434       -0.4157936247        2.4838960265
 C          4.8911729269       -0.7111308418        2.2156411465
 C          5.5532734257       -0.0828683003        1.1712791814
 C          4.8798035727        0.8365448184        0.3852561182
 H          5.3618696166        1.3547497484       -0.4277477533
 H          6.5872565481       -0.3093030282        0.9671888642
 H          5.4113333714       -1.4322581398        2.8261521273
 H          3.0404170456       -0.8983889129        3.2938151265
 H          1.8494127080        0.7431083246        1.8959134793
 H          3.3404718297        1.6453425876       -2.5094474733
 H          3.4543767520       -0.5351643205       -3.4683348721
 H          2.7280364147       -2.8883237442       -3.3365488078
 H          1.1002372853       -3.6009472956       -1.6434787688
 C         -0.1329767367       -2.0041594302        0.2699973753
 H          0.4176558564       -1.9882405824        1.2231531460
 C         -0.7592320915       -3.3716364144        0.0925568321
 C         -0.0755023634       -4.5913384743        0.6311951540
 C         -1.3136438696       -4.0715820091        1.2958497644
 H         -2.2322546621       -4.6290927249        1.1911983095
 H         -1.2139700948       -3.5717712083        2.2487946479
 H          0.8663075096       -4.4535826166        1.1403660871
 H         -0.1461443239       -5.5115007046        0.0710329134
 H         -1.3117024469       -3.4579633503       -0.8356541976
 O         -2.0240513610       -1.2973511096       -1.7811171957
