  62
        -98.94288843
 C          1.9841703198        0.5567569495        0.8484903005
 C          2.8872088199        1.1710196901       -0.0538386089
 C          4.2689367599        0.6656683603       -0.0235221990
 C          4.6035109399       -0.3090999703        0.8397981404
 C          5.9575684499       -0.9492805502        0.9328094702
 C          6.0513929102       -2.1854965096        0.0276049594
 C          5.5657439204       -1.9429043287       -1.4015468705
 H          5.7083416306       -2.8736790583       -1.9549550411
 H          4.4918956204       -1.7421220688       -1.3835156806
 C          6.2837486404       -0.7988702182       -2.1311734497
 H          7.2229035803       -0.5696792684       -1.6263382793
 H          6.5316144306       -1.1301846875       -3.1418111998
 C          5.4582465803        0.4813307018       -2.2719254490
 H          4.4779067104        0.2399176420       -2.6902083193
 H          5.9666224104        1.1360928023       -2.9846308784
 C          5.2474857400        1.2843821710       -0.9821662985
 H          6.2086510299        1.4572324207       -0.4942788982
 H          4.8231195400        2.2534213211       -1.2598623279
 H          7.0896962002       -2.5218655095        0.0093667594
 H          5.4439960302       -2.9815315600        0.4648646088
 H          6.7174569699       -0.2223572799        0.6527176408
 H          6.1231725298       -1.2542167109        1.9675083000
 O          3.7167405198       -0.8603045409        1.7075112999
 C          2.3951862997       -0.4514307011        1.7262539299
 O          1.6914508997       -1.0471089917        2.5679348894
 H         -1.4370656201       -0.9056641011        1.1981200390
 C         -1.2689153400       -0.6290024604        0.1678357692
 C         -0.2955235800        0.3065621599       -0.1526503800
 C         -0.0928891798        0.6293423708       -1.4912550698
 C         -0.8449917096        0.0221540414       -2.4795139203
 C         -1.8258792796       -0.8990502790       -2.1548735711
 C         -2.0384399198       -1.2264794898       -0.8218470213
 N         -3.0322467097       -2.1556043702       -0.4558949921
 S         -4.2174367200       -1.6636588410        0.6193471180
 O         -3.6373057102       -1.4040759318        1.9112478883
 O         -5.2265443798       -2.6972392010        0.5602088472
 C         -4.8489675900       -0.1550929606       -0.0931586211
 C         -5.9323583198       -0.2242816501       -0.9473168013
 C         -6.3762333898        0.9347680702       -1.5630283806
 C         -5.7237380100        2.1351544901       -1.3254869797
 C         -4.6355025001        2.1873856697       -0.4680912395
 C         -4.1913430001        1.0329283993        0.1568172298
 H         -3.3500339702        1.0375277590        0.8301755099
 H         -4.1258023703        3.1193324096       -0.2837497688
 H         -6.0651404500        3.0363250804       -1.8098202492
 H         -7.2244782097        0.8981397906       -2.2274547208
 H         -6.4106912897       -1.1782514001       -1.1001321820
 H         -3.4632394895       -2.6197234097       -1.2433671225
 H         -2.4172610394       -1.3681722085       -2.9268094215
 H         -0.6718402195        0.2751859320       -3.5144329001
 H          0.6726334801        1.3450074310       -1.7477672292
 C          0.5163528597        0.9449085293        0.9493741005
 H          0.1681537796        0.5234762386        1.9025473402
 C          0.3000571896        2.4455759292        0.9868680215
 C         -0.9175179706        2.9864461486        1.6711530716
 C          0.4348823693        3.1674770684        2.2919008820
 H          0.8784182092        4.1517033184        2.2930754327
 H          0.6779629992        2.5788016678        3.1652183416
 H         -1.4068159006        3.8501777689        1.2482530721
 H         -1.5898444306        2.2788544883        2.1344791310
 H          0.6522922597        2.9559223398        0.1007529219
 O          2.5818325799        2.0944384706       -0.8528968784
