  62
        -98.94487364
 C          1.9325500795        0.1734224691        0.0367040993
 C          2.9473557698        1.0589491893        0.4725656783
 C          4.2586387798        0.4535053492        0.7381591584
 C          4.4131429095       -0.8739307009        0.5803245394
 C          5.7059342094       -1.6133000510        0.7658737896
 C          6.4884328490       -1.7029642522       -0.5517692106
 C          6.6301466790       -0.3653747927       -1.2782676217
 H          7.2256373387       -0.5446809835       -2.1761177017
 H          5.6432628690       -0.0333154728       -1.6088203116
 C          7.2847005195        0.7441877678       -0.4434131027
 H          7.8177605996        0.3065681883        0.4014041275
 H          8.0237538394        1.2577019372       -1.0619932133
 C          6.3133459398        1.8099894284        0.0671935268
 H          5.7110928696        2.1845324678       -0.7643448234
 H          6.9001789301        2.6490889985        0.4502071660
 C          5.3649352901        1.3660543494        1.1880048474
 H          5.9390845102        0.9071341699        1.9953912976
 H          4.8734397903        2.2609619398        1.5807502968
 H          5.9702477687       -2.3995431926       -1.2150048399
 H          7.4784582590       -2.1100704122       -0.3383153206
 H          5.4777260693       -2.6228100907        1.1118590804
 H          6.3033663797       -1.1069013705        1.5214910390
 O          3.4082982692       -1.6962731810        0.1840176303
 C          2.1462006492       -1.1974003110       -0.1066599097
 O          1.3256375590       -2.0606701812       -0.4706079589
 O          2.7624962201        2.2948194594        0.6368936274
 C          0.5569857495        0.7372255691       -0.2745095208
 C         -0.4725878903        0.0824436200        0.6117674800
 C         -0.3059420199        0.1631054410        1.9930496499
 C         -1.2002437498       -0.4462660782        2.8499454206
 C         -2.2888431901       -1.1397054083        2.3488735615
 C         -2.4683826705       -1.2221680294        0.9741513016
 C         -1.5660958306       -0.6072736402        0.1145780209
 H         -1.7224730709       -0.7049803910       -0.9459680090
 N         -3.5545535608       -1.9352750296        0.4410493024
 S         -4.4799358910       -1.2880267503       -0.7903485678
 O         -5.6673995212       -2.1128298902       -0.8223949068
 O         -3.7196972413       -1.2158358714       -2.0110208881
 C         -4.8944355305        0.3477868502       -0.2136438989
 C         -5.9684611603        0.4870563610        0.6441263813
 C         -6.2603273899        1.7406018815        1.1560765004
 C         -5.4703747198        2.8270061111        0.8112703793
 C         -4.3959557801        2.6703738302       -0.0505138908
 C         -4.1015295204        1.4195328398       -0.5703779500
 H         -3.2778524907        1.2606102291       -1.2463701501
 H         -3.7837055400        3.5164303799       -0.3192629517
 H         -5.6942353695        3.8023049114        1.2138236187
 H         -7.0984642997        1.8666419921        1.8223567405
 H         -6.5617626404       -0.3818965287        0.8785948621
 H         -4.1434971306       -2.3732579789        1.1342412829
 H         -2.9852595300       -1.6245473677        3.0160630020
 H         -1.0526631695       -0.3808252474        3.9173595605
 H          0.5465086303        0.7024928112        2.3830249393
 H          0.6147638598        1.8027103693       -0.0070129116
 C          0.2577531591        0.6233036781       -1.7536125006
 C         -0.6650901209        1.6038938177       -2.4109970011
 C          0.8064306390        1.6556770172       -2.6905586915
 H          1.1623746487        1.3355386964       -3.6583767714
 H          1.3799453093        2.4630128875       -2.2588335223
 H         -1.3276532912        1.2480121072       -3.1863644706
 H         -1.0816948106        2.3851230883       -1.7928604716
 H          0.2441342688       -0.4034368722       -2.1029432698
