  62
        -98.94878244
 C         -0.9413183137       -1.2867660141        0.0468555737
 C         -1.9167709131       -1.0421706279        1.0402296727
 C         -2.6439565896        0.2285344258        0.9275227836
 C         -2.3239479810        1.0820274832       -0.0622986961
 C         -3.0119048851        2.3919411701       -0.3157577394
 C         -4.1806031329        2.2253766317       -1.2968759076
 C         -5.1273528574        1.0805157046       -0.9370204544
 H         -4.5932533976        0.1327068429       -1.0342517051
 H         -5.9297157776        1.0759922866       -1.6778184995
 C         -5.7325662062        1.1764207518        0.4704344884
 H         -6.8000500581        0.9543838538        0.4092053431
 H         -5.6350523478        2.1949140148        0.8481323401
 C         -5.1339048849        0.2015956234        1.4863853426
 H         -5.1457567937       -0.8106028459        1.0741508332
 H         -5.7720632425        0.2005295359        2.3741717664
 C         -3.7056680217        0.5138670944        1.9519949834
 H         -3.4824480362       -0.1368368689        2.8030431133
 H         -3.6453334845        1.5499858853        2.2927967653
 H         -3.7725838759        2.0320988504       -2.2913612305
 H         -4.7379776318        3.1631535245       -1.3325108135
 H         -3.3702948444        2.7954590844        0.6294879448
 H         -2.2857929602        3.0864877593       -0.7409070145
 O         -1.3627100230        0.8241730363       -0.9842420790
 C         -0.6465667158       -0.3631290416       -0.9563306874
 O          0.2048153754       -0.4736807560       -1.8571550850
 H          1.0855521202       -0.5010748086        1.2777085019
 C          1.7910008237       -1.1773553982        0.8176691506
 C          1.3349483152       -2.3080625653        0.1536918333
 C          2.2719187306       -3.1682223361       -0.4078490780
 C          3.6243863247       -2.8912360071       -0.3152569092
 C          4.0717169647       -1.7479388007        0.3211156290
 C          3.1427519272       -0.8834352238        0.8889247121
 N          3.5536740531        0.2911775210        1.5404792466
 S          2.6582342326        1.6898632303        1.4044785356
 O          3.5782918640        2.7342560488        1.8102938581
 O          1.4495180065        1.5967636566        2.1872495938
 C          2.2559269262        1.9236981890       -0.3179973867
 C          3.1099952077        1.4805490782       -1.3068159686
 C          2.7917807278        1.7378564442       -2.6299615502
 C          1.6413377408        2.4429841995       -2.9415675469
 C          0.8007036500        2.8925149473       -1.9372261723
 C          1.1078766704        2.6289323618       -0.6130724164
 H          0.4698587750        2.9405968833        0.1998812729
 H         -0.0993844546        3.4338996204       -2.1818576210
 H          1.3925953277        2.6363767573       -3.9731273349
 H          3.4398866119        1.3804390030       -3.4138666339
 H          4.0001894667        0.9307543388       -1.0489192312
 H          4.5445606898        0.4812497662        1.5036595788
 H          5.1260710070       -1.5248783028        0.3820820017
 H          4.3400329482       -3.5689692407       -0.7548825439
 H          1.9406567818       -4.0566441593       -0.9201405614
 C         -0.1487192072       -2.5774992768        0.0927390698
 H         -0.4459238404       -3.0723498748        1.0304808266
 C         -0.5375033646       -3.4691751940       -1.0712357642
 C         -0.5920482121       -4.9584307871       -0.9109332700
 C         -1.8609854168       -4.1708376714       -1.0295838808
 H         -2.4357610615       -4.2456195527       -1.9404856025
 H         -2.4636853879       -4.0334957997       -0.1433618733
 H         -0.3432150967       -5.3686164670        0.0562774247
 H         -0.2971462931       -5.5779639773       -1.7445415937
 H         -0.2145601283       -3.0661060451       -2.0246353871
 O         -2.1673690431       -1.8494355217        1.9778895305
