  62
        -98.93896036
 C         -1.8252578546       -0.8658192269        0.4280086667
 C         -2.4683436376       -0.2809794487       -0.6870913370
 C         -3.5618327440        0.6647600185       -0.3928193924
 C         -3.8716899690        0.9433447435        0.8870679113
 C         -4.8976408311        1.8847637179        1.4834088831
 C         -6.0162690348        2.4683027354        0.6242240533
 C         -7.0425106518        1.4487932667        0.1310617965
 H         -7.6221145239        1.0971383481        0.9883442576
 H         -7.7296915183        1.9581552854       -0.5480488595
 C         -6.4684484753        0.2209581692       -0.5715043807
 H         -5.8583126672       -0.3515250908        0.1301284020
 H         -7.3059999798       -0.4177838400       -0.8646933428
 C         -5.6443955156        0.5099071047       -1.8247618133
 H         -5.4350372520       -0.4477886247       -2.3087399695
 H         -6.2308810375        1.1139661843       -2.5197104251
 C         -4.2955417000        1.2099161848       -1.5839198976
 H         -3.6552958880        1.0187816187       -2.4502844211
 H         -4.4172669869        2.2874010773       -1.5014496443
 H         -5.5993533681        3.0242180815       -0.2104316453
 H         -6.5450289594        3.1908269340        1.2520264380
 H         -5.3397175517        1.3457150393        2.3274440395
 H         -4.3252405001        2.7138607937        1.9145009722
 O         -3.1874202407        0.3869183964        1.9307990378
 C         -2.1641620117       -0.5233070595        1.7345832928
 O         -1.6370598770       -0.9406550067        2.7865931274
 H          0.4102584454        0.4699384505        0.7852328252
 C          0.8935358883        0.0121141176       -0.0696632087
 C          0.4388989162       -1.2215866854       -0.5204592668
 C          1.0785126092       -1.8055417072       -1.6053458573
 C          2.1217651423       -1.1517613062       -2.2395447877
 C          2.5559947455        0.0854719700       -1.8025573748
 C          1.9364489364        0.6687378188       -0.7037151025
 N          2.3825180807        1.9162567675       -0.2364291398
 S          4.0324298698        2.1663929569       -0.1164207098
 O          4.1911676502        3.1436605384        0.9378927134
 O          4.5611660124        2.5418346079       -1.4041626507
 C          4.7148216085        0.5931232369        0.3773804938
 C          4.2637506891        0.0267449638        1.5532473397
 C          4.7612164316       -1.2080597117        1.9362707680
 C          5.6974180610       -1.8519895297        1.1414451005
 C          6.1447289956       -1.2675089102       -0.0330069235
 C          5.6485240703       -0.0336114058       -0.4223937264
 H          5.9650348626        0.4552747443       -1.3292979905
 H          6.8741497937       -1.7696106588       -0.6477298040
 H          6.0796614414       -2.8148046673        1.4415780441
 H          4.4130138088       -1.6632999318        2.8496462514
 H          3.5375844686        0.5527302829        2.1526692663
 H          1.8986440682        2.2452670471        0.5855174501
 H          3.3540636255        0.6146070600       -2.2975122409
 H          2.6012106057       -1.6114988507       -3.0900097406
 H          0.7538358904       -2.7683798935       -1.9631086150
 C         -0.7049537772       -1.8692709300        0.2226211966
 H         -0.3473475290       -2.1317221936        1.2292110920
 C         -1.2358181079       -3.1193114362       -0.4470758963
 C         -0.5842966681       -4.4449352005       -0.1957898355
 C         -1.9303177243       -4.1481192078        0.3919177894
 H         -2.7960824694       -4.6478304714       -0.0161421152
 H         -1.9972998478       -3.9591776507        1.4538202071
 H         -0.5273984744       -5.1541078677       -1.0076770345
 H          0.2644105759       -4.4667330578        0.4707499573
 H         -1.6401153575       -2.9230948112       -1.4332254161
 O         -2.1463864276       -0.5284943647       -1.8777432575
