  62
        -98.94872875
 C         -1.9873647803       -1.0505843491       -0.2015866199
 C         -1.0856055807       -1.7467488096       -1.0393375999
 C         -0.1733832411       -2.6762773400       -0.3675311798
 C         -0.2290499311       -2.8130943198        0.9699186202
 C          0.6371855985       -3.7207913201        1.8006685303
 C          2.0068118788       -3.1182780508        2.1435165202
 C          3.0078874287       -3.0842083014        0.9877648901
 H          3.9881830789       -2.8751631218        1.4205469701
 H          3.0590367482       -4.0685448615        0.5206250902
 C          2.7036315292       -2.0172125614       -0.0729651100
 H          2.0188571896       -1.2764471610        0.3482025499
 H          3.6238090495       -1.4862448519       -0.3279946701
 C          2.1209168989       -2.5589167712       -1.3782346799
 H          2.8685759686       -3.1735301317       -1.8845634199
 H          1.8882805693       -1.7081126312       -2.0237687600
 C          0.8436806685       -3.3903151606       -1.2066755698
 H          0.4036929084       -3.5479155305       -2.1947027897
 H          1.0814331881       -4.3600966507       -0.7701337097
 H          2.4338584785       -3.7155178809        2.9529527802
 H          1.8549506093       -2.1026618406        2.5191740300
 H          0.7729967880       -4.6739511803        1.2881021404
 H          0.0958631584       -3.8994711398        2.7323221103
 O         -1.1215868808       -2.1376541793        1.7404871102
 C         -1.9880112203       -1.2100041289        1.1844689001
 O         -2.7122905300       -0.6212365585        2.0114407200
 O         -1.0423940306       -1.5922471698       -2.2908860299
 C         -2.8987351398       -0.0048145587       -0.8171214600
 C         -2.5319724491        1.3570825512       -0.2780647702
 C         -3.4645757386        2.3307855217        0.0524517997
 C         -3.0491161180        3.5455963715        0.5716493596
 C         -1.7084655479        3.8076837609        0.7824505995
 C         -0.7644006283        2.8446463104        0.4390367096
 C         -1.1828845390        1.6459543405       -0.1118071703
 H         -0.4529021693        0.8909161302       -0.3627027902
 N          0.6060863618        3.0876684297        0.6194813295
 S          1.7008148212        1.9026914493        1.0708532696
 O          1.0459154806        0.6901615396        1.5005603697
 O          2.5673714216        2.5347577789        2.0450031795
 C          2.6581763910        1.5932164686       -0.4029740404
 C          2.0665063410        1.6179197088       -1.6495024104
 C          2.8405015508        1.3348178682       -2.7647885004
 C          4.1862628906        1.0372552776       -2.6194516004
 C          4.7695026207        1.0262420375       -1.3619057904
 C          3.9999965409        1.3041346780       -0.2435340604
 H          4.4118758909        1.3093298079        0.7526442095
 H          5.8174659606        0.7995608569       -1.2484164605
 H          4.7820263705        0.8153714372       -3.4906066304
 H          2.3846424108        1.3456613783       -3.7420657804
 H          1.0193901511        1.8550038093       -1.7442441204
 H          0.8202790522        3.9572005997        1.0848597794
 H         -1.3900077574        4.7451851908        1.2125021293
 H         -3.7828068676        4.2931747319        0.8328185495
 H         -4.5157701587        2.1348564022       -0.0822071102
 H         -2.6754788599       -0.0212448089       -1.8951129400
 C         -4.3561473300       -0.3616005380       -0.6169376699
 C         -5.3819586698        0.0430811324       -1.6323231999
 C         -4.9759159605       -1.3937809778       -1.5093430198
 H         -5.6739342608       -2.0955119474       -1.0782483297
 H         -4.3514902808       -1.8183849982       -2.2818511998
 H         -6.3646391797        0.3271882430       -1.2870611099
 H         -5.0409431196        0.5915784022       -2.4972752600
 H         -4.6410686499       -0.3677737677        0.4291985201
