  62
        -98.93253663
 C          2.3986905247        1.1367966457        0.1337424370
 C          2.7204168156        0.0110321671       -0.6608697735
 C          4.1478075209       -0.3356856162       -0.7298686048
 C          5.0506729247        0.4218403760       -0.0812072730
 C          6.5466677634        0.2485511289       -0.0926388923
 C          7.0891434086       -1.0375813483        0.5601344556
 C          7.3210356339       -2.1942329514       -0.4198156503
 H          7.4724911275       -1.7829119786       -1.4185010493
 H          8.2470835586       -2.7044653296       -0.1471335626
 C          6.2217542460       -3.2598145782       -0.4672058408
 H          6.3840991764       -3.8678967572       -1.3597109026
 H          6.3235115333       -3.9158535380        0.4002944611
 C          4.7846084950       -2.7380760594       -0.4791478874
 H          4.5087744683       -2.3957368934        0.5211316320
 H          4.1201665685       -3.5725931537       -0.7117080187
 C          4.5251462330       -1.5861319221       -1.4695345844
 H          3.6790022050       -1.8325453914       -2.1141091486
 H          5.3981139098       -1.4133230584       -2.0972546817
 H          6.4218316854       -1.3464809074        1.3642606482
 H          8.0467569553       -0.7804153324        1.0155976260
 H          6.8973853929        0.3060686185       -1.1254892226
 H          6.9423252654        1.1140231362        0.4426966926
 O          4.6968257644        1.5073916936        0.6614868141
 C          3.3713306709        1.8806867385        0.8006211643
 O          3.1897631459        2.8754001138        1.5325000572
 O          1.8643511259       -0.6674789821       -1.2863521678
 C          0.9543561051        1.5778619431        0.2715112679
 C          0.0914727381        0.4551972400        0.7953523703
 C          0.5538255745       -0.3278832959        1.8501476013
 C         -0.2235723871       -1.3445022871        2.3695983253
 C         -1.4897305697       -1.5880844869        1.8668687572
 C         -1.9638195248       -0.8087501532        0.8192529643
 C         -1.1726316472        0.2008963545        0.2879193495
 H         -1.5680998350        0.7870907739       -0.5244962961
 N         -3.2384174292       -1.0341531596        0.2750029123
 S         -4.1317077989        0.3019102646       -0.2437716297
 O         -3.7549890128        0.6215527159       -1.5975275662
 O         -4.0244414370        1.3731335081        0.7207046031
 C         -5.7794189181       -0.3816476665       -0.2239250957
 C         -6.5803149553       -0.1801368678        0.8844972503
 C         -7.8492927855       -0.7371628172        0.9052284677
 C         -8.2925265305       -1.4847732506       -0.1754453905
 C         -7.4777145884       -1.6777257747       -1.2812672250
 C         -6.2082822345       -1.1224357096       -1.3091485564
 H         -5.5439528072       -1.2372253835       -2.1498237990
 H         -7.8269219342       -2.2569868714       -2.1207452186
 H         -9.2805262028       -1.9170355630       -0.1571595999
 H         -8.4863148019       -0.5856806435        1.7617136022
 H         -6.1971983801        0.4164263596        1.6967939838
 H         -3.7973809600       -1.6687108079        0.8286325892
 H         -2.1004122135       -2.3776669010        2.2777120916
 H          0.1545784680       -1.9471540936        3.1818978447
 H          1.5372243150       -0.1287643425        2.2552090514
 H          0.9500412937        2.3824678138        1.0230092438
 C          0.4602921614        2.1441980621       -1.0441010393
 C         -0.5972083349        3.2053378130       -1.0633384590
 C          0.8180392535        3.5509564614       -1.4142184638
 H          1.0564971607        3.7690625759       -2.4443045099
 H          1.3986833426        4.1172107218       -0.7002847963
 H         -1.3372511600        3.1796708874       -1.8498292939
 H         -0.9856445883        3.5418988073       -0.1133753660
 H          0.4520117627        1.4039578610       -1.8368186764
