  62
        -98.94121040
 C          1.3427879777        1.5235985386       -0.1626151630
 C          2.4622656578        1.1031565530        0.5865884032
 C          3.1070695788       -0.1538601962        0.1661323945
 C          2.5848523153       -0.8420943063       -0.8651953361
 C          3.0592124204       -2.1394223625       -1.4697751581
 C          3.4254455599       -3.2584950608       -0.4828937767
 C          4.9254761685       -3.5533926060       -0.4281697269
 H          5.0665720373       -4.5755308212       -0.0699427917
 H          5.3247960839       -3.5050509191       -1.4433676004
 C          5.7373196331       -2.6301536589        0.4785711942
 H          5.5103991539       -2.8596380357        1.5220293229
 H          6.7942011425       -2.8557494603        0.3180762689
 C          5.5164029753       -1.1324796215        0.2565102653
 H          6.3961785975       -0.6068110136        0.6337352522
 H          5.4436356983       -0.9096776592       -0.8071651104
 C          4.2902677394       -0.5750968353        0.9947450661
 H          3.9480275169       -1.2925683883        1.7473225942
 H          4.5733120353        0.3257415141        1.5488410326
 H          3.0444802386       -3.0144576812        0.5082856128
 H          2.9136169394       -4.1672031462       -0.8046102548
 H          2.2387611409       -2.4675438169       -2.1119200826
 H          3.9082149217       -1.9301133193       -2.1255160593
 O          1.4985216455       -0.3995794798       -1.5585265027
 C          0.8405537765        0.7659690670       -1.2180356146
 O         -0.1569688255        1.0200206044       -1.9217108733
 O          2.9084638315        1.7521700000        1.5737340817
 C          0.6027622154        2.7863396786        0.2384592506
 C         -0.8431054943        2.4594795087        0.5220376901
 C         -1.9046063424        3.2586046181        0.1161237158
 C         -3.2098567801        2.8807761323        0.3818891468
 C         -3.4853278519        1.6928014455        1.0339040084
 C         -2.4292815363        0.8931850657        1.4549860431
 C         -1.1245072503        1.2950650601        1.2254731589
 H         -0.3163131025        0.6621287695        1.5621895345
 N         -2.6479832797       -0.3400285997        2.1057886422
 S         -2.1245755862       -1.7187613297        1.3061712806
 O         -2.5151786896       -2.8184241376        2.1629900513
 O         -0.7208633783       -1.6129388546        1.0041727291
 C         -3.1053895170       -1.7602107259       -0.1837052347
 C         -2.7605767282       -0.9521281830       -1.2484536350
 C         -3.5787511648       -0.9446748225       -2.3685818874
 C         -4.7166934880       -1.7352079746       -2.4052496811
 C         -5.0477945443       -2.5415292182       -1.3262865930
 C         -4.2388739418       -2.5512011705       -0.2020934804
 H         -4.4525135123       -3.1631695060        0.6594437061
 H         -5.9314394159       -3.1583988849       -1.3569856343
 H         -5.3470327917       -1.7228587223       -3.2804287346
 H         -3.3120568090       -0.3151543731       -3.2023888729
 H         -1.8673642117       -0.3475698928       -1.2071029278
 H         -3.6053648358       -0.4776893675        2.4014559255
 H         -4.5037017690        1.3834900961        1.2150680445
 H         -4.0239860145        3.5108336860        0.0579648153
 H         -1.7100777479        4.1750921567       -0.4165585016
 H          1.0752380395        3.1218609984        1.1739681135
 C          0.7807382727        3.8623525277       -0.8130161257
 C          0.7853909824        5.3102185768       -0.4248617853
 C          2.0602412029        4.6416644589       -0.8401207535
 H          2.4903919940        4.8939994174       -1.7976628205
 H          2.7927656165        4.4137499928       -0.0795358288
 H          0.3420509218        6.0265266356       -1.1000069748
 H          0.6573726249        5.5483968477        0.6202133892
 H          0.3425902025        3.5862136642       -1.7657318764
