  62
        -98.94085002
 C         -1.6945951405       -0.5577229533        0.0728661220
 C         -2.8576093848       -1.2384185286        0.5172388079
 C         -4.1128692571       -0.8831864338       -0.1531049592
 C         -4.1087131082        0.0491876582       -1.1224699164
 C         -5.3006393999        0.5008551873       -1.9221675872
 C         -6.1428094409        1.5817457183       -1.2307405622
 C         -6.9789004183        1.0956914027       -0.0461207721
 H         -7.6774444197        1.8970655145        0.2026945163
 H         -7.5701546717        0.2315789810       -0.3507619958
 C         -6.1610484494        0.7476249295        1.2054998147
 H         -5.1658879514        1.1912074012        1.1243022069
 H         -6.6363316107        1.1879176020        2.0849871834
 C         -6.0153721182       -0.7507039993        1.4717178497
 H         -6.9959997196       -1.1819560521        1.6845336056
 H         -5.3899664986       -0.8820312863        2.3583316329
 C         -5.3753122410       -1.5379721353        0.3207522992
 H         -5.1160512505       -2.5334725736        0.6893617060
 H         -6.0816836673       -1.6422644754       -0.5025981230
 H         -5.4784444838        2.3851477908       -0.9038455110
 H         -6.8203804501        1.9960622072       -1.9809431367
 H         -4.9102957180        0.9131705986       -2.8552158450
 H         -5.9304106457       -0.3575320155       -2.1579526564
 O         -2.9776453545        0.6971020674       -1.5060866717
 C         -1.7494078755        0.4355761078       -0.9061602669
 O         -0.8233331929        1.1483681292       -1.3355276029
 H          2.0529943717        0.0167811738       -0.1684775366
 C          1.6145756532        0.6551457543        0.5787009626
 C          0.3742695374        0.3481313789        1.1149229806
 C         -0.1934792911        1.2270373197        2.0338263143
 C          0.4570060177        2.3919408065        2.3898502340
 C          1.6963805208        2.6945974208        1.8543241871
 C          2.2777005332        1.8189935397        0.9442599834
 N          3.5575615505        2.0766618701        0.4475157979
 S          4.2651801613        1.2763965940       -0.8250737053
 O          5.5383090740        1.9486923175       -0.9849668027
 O          3.4327556077        1.2323840392       -2.0036371917
 C          4.5402163366       -0.3713115591       -0.2054151111
 C          4.3707817222       -1.4407264499       -1.0621423879
 C          4.5881262779       -2.7246283866       -0.5879049708
 C          4.9738028738       -2.9158412302        0.7298221521
 C          5.1483428521       -1.8311875884        1.5757235287
 C          4.9323705637       -0.5450647611        1.1069481421
 H          5.0546012367        0.3179040894        1.7397827263
 H          5.4483016559       -1.9840886388        2.5999048375
 H          5.1375993680       -3.9161320236        1.0985439732
 H          4.4528490357       -3.5685516233       -1.2456085456
 H          4.0601744751       -1.2441362099       -2.0765071286
 H          3.9406915677        2.9912488337        0.6253013238
 H          2.2073816820        3.6036591432        2.1320724159
 H         -0.0016984051        3.0716943268        3.0923234072
 H         -1.1622046708        0.9903428053        2.4529400211
 C         -0.3805822429       -0.9040712761        0.7497018729
 H         -0.6819621224       -1.4013363290        1.6873210174
 C          0.4670536742       -1.9087400038       -0.0166313029
 C         -0.1684685476       -2.9554407879       -0.8802969316
 C          0.6283514892       -1.8515017070       -1.5047968424
 H          1.5952522969       -2.0877204030       -1.9240072388
 H          0.1087312453       -1.0692951034       -2.0365018453
 H         -1.2431931445       -2.9331501537       -0.9867025715
 H          0.2496454322       -3.9504950754       -0.8715419330
 H          1.3382500012       -2.2200254265        0.5527191363
 O         -2.8458306790       -2.1021982319        1.4335236863
