  62
        -98.93904777
 C          1.9712104484        1.0671502217       -0.2475894548
 C          3.0657333301        1.1098731515        0.6543636170
 C          4.3024375431        0.4216961261        0.2488245876
 C          4.3398870062       -0.2188966296       -0.9340829621
 C          5.4572227468       -0.9673915118       -1.6300665620
 C          6.7142473278       -1.3784515834       -0.8680022101
 C          6.4921733983       -2.4429086917        0.2058830654
 H          6.2444552091       -3.3868887196       -0.2862937484
 H          7.4316250648       -2.5857401084        0.7443488940
 C          5.3835670948       -2.1441948332        1.2122194725
 H          5.3349568259       -2.9815939257        1.9136917627
 H          4.4211318560       -2.1023530577        0.6976538377
 C          5.5668129514       -0.8656818284        2.0276926398
 H          6.5426387928       -0.8788223217        2.5170182089
 H          4.8010351740       -0.8619316268        2.8080363888
 C          5.4303086093        0.4486571307        1.2396449042
 H          5.1939631975        1.2451345807        1.9511598489
 H          6.3639764940        0.7151433670        0.7499063699
 H          7.2001115824       -0.5048861618       -0.4434962648
 H          7.4033190307       -1.7956624336       -1.6074247284
 H          5.7558056191       -0.3361820499       -2.4744892119
 H          4.9932069901       -1.8595505902       -2.0627858590
 O          3.2633144733       -0.2335474051       -1.7706607689
 C          2.0658718456        0.3911787144       -1.4621871136
 O          1.2003919240        0.2584669308       -2.3519268366
 O          3.0166873667        1.7174538688        1.7568722614
 C          0.7067058762        1.7944302485        0.1789283521
 C         -0.3299880547        0.8352939351        0.7139446335
 C         -0.7361333175        0.8935560919        2.0419943670
 C         -1.6905234983        0.0163030118        2.5277908748
 C         -2.2598325518       -0.9341521258        1.7000734548
 C         -1.8612957162       -0.9985427599        0.3705448568
 C         -0.9107145244       -0.1130950428       -0.1164647155
 H         -0.5975920948       -0.1764695767       -1.1478990227
 N         -2.4362811347       -1.9570510396       -0.4812798552
 S         -4.1001167347       -2.1266370987       -0.4396605035
 O         -4.4697214010       -2.9859201123        0.6583190097
 O         -4.4734049952       -2.5935271256       -1.7564852337
 C         -4.7300961427       -0.4817964974       -0.1527531349
 C         -4.4165548034        0.5038020943       -1.0677569745
 C         -4.8668229047        1.7940721165       -0.8423214803
 C         -5.6178761431        2.0762426817        0.2885570265
 C         -5.9286595150        1.0746200689        1.1946624371
 C         -5.4796206846       -0.2179016404        0.9753538360
 H         -5.6942454166       -1.0260706138        1.6554227732
 H         -6.5146305358        1.2962396330        2.0719773333
 H         -5.9623886132        3.0833248667        0.4625224306
 H         -4.6264178733        2.5740015210       -1.5468215985
 H         -3.8321055542        0.2531178651       -1.9387657518
 H         -2.0900210651       -1.9154812753       -1.4285890721
 H         -2.9953812780       -1.6338391239        2.0628244541
 H         -1.9929013220        0.0710863050        3.5622668157
 H         -0.2862544814        1.6236287228        2.6986691891
 H          1.0194361451        2.4424474548        1.0083939365
 C          0.1230305231        2.6665116080       -0.9162870513
 C         -0.7894680786        3.7933446263       -0.5396185576
 C          0.5899168662        4.0837696596       -1.0486669115
 H          0.7012863107        4.4983505498       -2.0394001803
 H          1.3319532894        4.4329430062       -0.3454199186
 H         -1.6287561033        4.0118758988       -1.1813209060
 H         -0.9852573527        3.9481514474        0.5103425743
 H         -0.0888944918        2.1273841882       -1.8302589895
