  62
        -98.94122816
 C         -2.5478424564       -1.1214252571        0.4767146893
 C         -2.8430360367       -0.3134958276       -0.6485129769
 C         -3.2530974033        1.0668104722       -0.3529678385
 C         -3.3313887006        1.4924752825        0.9195723591
 C         -3.7106775917        2.8759964316        1.3716143300
 C         -2.5370602666        3.8655960773        1.3650676485
 C         -2.0828183316        4.3290354872       -0.0198901406
 H         -1.4162436534        5.1805476691        0.1303078247
 H         -2.9450663081        4.6842625959       -0.5857202647
 C         -1.3361804255        3.2626922314       -0.8340282080
 H         -0.9778591310        2.4713840473       -0.1695094586
 H         -0.4427451115        3.7018348045       -1.2866276084
 C         -2.1567452636        2.6409766176       -1.9645431594
 H         -1.5423017830        1.8749711329       -2.4457526612
 H         -2.3844813621        3.4045448021       -2.7122219949
 C         -3.4711967267        1.9889773232       -1.5146999263
 H         -3.8587508151        1.3938721404       -2.3454894170
 H         -4.2021291242        2.7559605380       -1.2609160080
 H         -1.6915762702        3.4094863411        1.8860661279
 H         -2.8471327228        4.7445089423        1.9351797079
 H         -4.0752621730        2.7801677576        2.3965323581
 H         -4.5179999552        3.2608891278        0.7482419667
 O         -3.0733703140        0.6770199238        1.9756281843
 C         -2.6421991404       -0.6232098864        1.7797089722
 O         -2.3920048649       -1.2419571382        2.8336380905
 O         -2.7645985387       -0.6953856129       -1.8460053522
 C         -1.9981889174       -2.5368416028        0.3706054560
 C         -0.4944282309       -2.4510158752        0.3006910623
 C          0.3239555472       -3.1536778596        1.1758444052
 C          1.6981957736       -2.9843019251        1.1456943524
 C          2.2814383516       -2.0992684212        0.2557141986
 C          1.4700823783       -1.3970076636       -0.6248325123
 C          0.0996791951       -1.5874084329       -0.6098703478
 H         -0.5199150727       -1.0318779323       -1.2992285134
 N          2.0495405060       -0.4314809482       -1.4891607943
 S          2.3417704502        1.0226368493       -0.6772935918
 O          1.3900313454        1.2274147027        0.3920445419
 O          2.3958373162        2.0439743887       -1.6998348344
 C          3.9694346246        0.7614584038       -0.0083281784
 C          4.1317359307        0.5732067033        1.3497519401
 C          5.4052112365        0.3381197941        1.8449095749
 C          6.4860817213        0.2941779294        0.9773933495
 C          6.3057831170        0.4862029413       -0.3845661750
 C          5.0356648886        0.7216310836       -0.8857784026
 H          4.8477585099        0.8811741985       -1.9344337812
 H          7.1489525163        0.4516227200       -1.0554379921
 H          7.4750796367        0.1089601893        1.3658357341
 H          5.5468553328        0.1880606228        2.9031558388
 H          3.2604264849        0.6112834668        1.9843079928
 H          1.4543712518       -0.2297633759       -2.2823971040
 H          3.3482467444       -1.9449565635        0.2397094446
 H          2.3201426781       -3.5350112803        1.8345087409
 H         -0.1262748336       -3.8155787170        1.9011168841
 H         -2.2607633116       -3.0260962041        1.3216399037
 C         -2.6171516475       -3.3545457204       -0.7530384928
 C         -1.8600253893       -3.7917253065       -1.9678234124
 C         -2.2302513780       -4.7945927148       -0.9195026212
 H         -3.0024324151       -5.5159564563       -1.1389881639
 H         -1.4387021076       -5.1699032353       -0.2884603064
 H         -2.3887870915       -3.7987247362       -2.9086633620
 H         -0.8234730675       -3.5056586360       -2.0556686125
 H         -3.6633104225       -3.1104657541       -0.9028527274
