  62
        -98.93801367
 C         -2.3961409314       -1.2114479557       -0.1020777893
 C         -3.1702797195       -0.4907508810        0.8333596805
 C         -4.0010540727        0.6105407137        0.3078181679
 C         -3.9704731985        0.8683182549       -1.0133443224
 C         -4.6882917324        1.9573804974       -1.7653215023
 C         -4.0334103626        3.3358458174       -1.5779675038
 C         -3.6198791801        3.6626532327       -0.1451936854
 H         -2.9311396830        2.8951558037        0.2137726190
 H         -3.0689142544        4.6068060147       -0.1649266024
 C         -4.7710872396        3.8148537027        0.8462706574
 H         -5.4327040245        4.6144622170        0.5058291294
 H         -4.3383446858        4.1262843031        1.8006844989
 C         -5.6122643580        2.5607351921        1.0927410042
 H         -6.3026828852        2.3847097862        0.2724196599
 H         -6.2250797619        2.7496544776        1.9790375136
 C         -4.8065952755        1.2983228744        1.3840498175
 H         -4.1048306790        1.5022071825        2.2013325586
 H         -5.4881095572        0.5334303195        1.7760401348
 H         -3.1344847008        3.3689389346       -2.1983927312
 H         -4.7233157985        4.0986586307       -1.9423137439
 H         -4.6397098606        1.6913002287       -2.8234113030
 H         -5.7350510063        1.9822052552       -1.4777230351
 O         -3.1966590625        0.1520449993       -1.8783690136
 C         -2.3930374962       -0.8921004542       -1.4594776223
 O         -1.7412684920       -1.4404477382       -2.3672828176
 O         -3.1632174403       -0.7438902165        2.0703070659
 C         -1.5165818449       -2.3479614659        0.3830164819
 C         -0.0669275256       -2.0627068443        0.0730756923
 C          0.8068692246       -3.0165123741       -0.4316725204
 C          2.1303129647       -2.6940782353       -0.6793471199
 C          2.6114458565       -1.4223355632       -0.4306059876
 C          1.7501523096       -0.4633658697        0.0868796621
 C          0.4278386199       -0.7918684758        0.3407729050
 H         -0.2404406474       -0.0427882767        0.7493229635
 N          2.2266047583        0.8369146309        0.3346202623
 S          3.6021686589        1.0018292301        1.2854750035
 O          3.7297084176       -0.0911082379        2.2217390211
 O          3.5111396976        2.3289021108        1.8543765029
 C          4.9421209267        0.9633442162        0.1143643235
 C          4.9439498298        1.8978565980       -0.9025888227
 C          5.9831368570        1.8867714311       -1.8190683212
 C          6.9983997579        0.9489312894       -1.7019238656
 C          6.9840290954        0.0200013890       -0.6727841676
 C          5.9465655580        0.0247496948        0.2467383489
 H          5.8900539840       -0.6811914987        1.0599309524
 H          7.7745026634       -0.7076724166       -0.5832677240
 H          7.8056782438        0.9427634937       -2.4171387365
 H          5.9976151060        2.6075627252       -2.6206939747
 H          4.1383858184        2.6112184078       -0.9556151855
 H          1.5093252776        1.4771499523        0.6433003691
 H          3.6385776921       -1.1654500061       -0.6315451126
 H          2.7957323616       -3.4446044314       -1.0777194744
 H          0.4510611605       -4.0128422893       -0.6358249456
 H         -1.6316157396       -2.3604065656        1.4778923378
 C         -2.0070049832       -3.6688783011       -0.1720233622
 C         -1.8108972060       -4.9361973051        0.6036147066
 C         -3.1783042500       -4.3359410283        0.4824386462
 H         -3.9071991769       -4.8288582921       -0.1431127159
 H         -3.6040999686       -3.8502359539        1.3485354146
 H         -1.6031365147       -5.8460272107        0.0609627490
 H         -1.3102990115       -4.8663839041        1.5576432070
 H         -1.9459675970       -3.7123175667       -1.2536249479
