  62
        -98.94850459
 C         -1.2484523632       -1.5167086144        0.4999512740
 C         -2.1657581148       -1.1780932412       -0.5237239155
 C         -3.2022022163       -0.2031244272       -0.1566316187
 C         -3.2283124339        0.2972966733        1.0917635766
 C         -4.2037385968        1.3260732652        1.5841731580
 C         -3.6507415769        2.7478207830        1.4167570841
 C         -3.0918560147        3.0405830428        0.0238264067
 H         -2.7816959261        4.0884157063        0.0155322537
 H         -2.1844376369        2.4509426311       -0.1321598148
 C         -4.0788523610        2.7921529269       -1.1254519882
 H         -5.0991288163        2.7767801860       -0.7393968246
 H         -4.0093037114        3.6264504358       -1.8268430132
 C         -3.8196688697        1.5156356895       -1.9280922267
 H         -4.4097879970        1.5669949265       -2.8472532488
 H         -2.7654558242        1.4760044023       -2.2161974977
 C         -4.1776234850        0.1997617403       -1.2255598240
 H         -5.1920174592        0.2585638184       -0.8258284289
 H         -4.1468303699       -0.5967484879       -1.9748657791
 H         -2.8444707686        2.8959526811        2.1391497154
 H         -4.4489718050        3.4567183805        1.6465365371
 H         -5.1389260579        1.2225417833        1.0372466316
 H         -4.3904750402        1.1427412713        2.6439777721
 O         -2.3341884762       -0.0561626381        2.0498570113
 C         -1.3028290925       -0.9370073821        1.7663135033
 O         -0.5106284911       -1.1244244221        2.7136180767
 H          0.4152243735        0.1169445601       -0.2385324683
 C          0.9582700927       -0.5106585689       -0.9270853985
 C          0.7883991194       -1.8862553315       -0.8767241916
 C          1.4747354068       -2.6694500381       -1.7970089212
 C          2.2938198193       -2.0778643628       -2.7433914263
 C          2.4633793356       -0.7053007807       -2.7843070233
 C          1.7836641910        0.0858255633       -1.8655255380
 N          1.9100956810        1.4827482457       -1.8638472075
 S          1.8673748798        2.3184229642       -0.4165968085
 O          0.5272570446        2.3525644958        0.1119734318
 O          2.4526928416        3.6036355738       -0.7347126242
 C          2.9658128486        1.4103661028        0.6564862281
 C          2.4779145499        0.6337093472        1.6867503945
 C          3.3713614381       -0.1003950925        2.4521897245
 C          4.7285338242       -0.0450554784        2.1786690622
 C          5.2051933692        0.7487321829        1.1457790175
 C          4.3175254850        1.4800276487        0.3751119198
 H          4.6485133396        2.1175615699       -0.4285587342
 H          6.2620574352        0.7959884879        0.9387070868
 H          5.4171362668       -0.6212715400        2.7762260548
 H          2.9889015416       -0.7135661608        3.2528493467
 H          1.4180515574        0.6000223416        1.8866670835
 H          2.5988989592        1.8555728617       -2.4998456284
 H          3.1029967263       -0.2487608526       -3.5237377628
 H          2.8140569161       -2.6965547870       -3.4586333907
 H          1.3611877185       -3.7410617605       -1.7781936454
 C         -0.0992957511       -2.4610832376        0.2027759982
 H          0.4952631972       -2.5165268699        1.1276737345
 C         -0.6163073077       -3.8468917956       -0.1268354973
 C          0.1668313331       -5.0627285922        0.2655573346
 C         -1.0989831694       -4.7208832795        0.9905266195
 H         -1.9733234804       -5.3325460281        0.8265693543
 H         -1.0255549435       -4.3258862688        1.9937112941
 H          0.1601353605       -5.9156295403       -0.3963642809
 H          1.1010241389       -4.9118700284        0.7852114356
 H         -1.1721285032       -3.8708602579       -1.0568169608
 O         -2.1209295715       -1.6607375401       -1.6856459823
