  62
        -98.94025869
 C         -1.5837416701       -1.4826390393       -0.0026590793
 C         -2.7712442103       -0.9679793193        0.5669660302
 C         -3.3604382800        0.2299944207       -0.0604429501
 C         -2.7240991197        0.7885334806       -1.1067446899
 C         -3.0893909794        2.0364579806       -1.8660148201
 C         -2.7408669097        3.3135425106       -1.0873755701
 C         -3.1754844102        3.3087765907        0.3754883398
 H         -2.6764555204        2.4843387808        0.8891735700
 H         -2.8089987904        4.2328349208        0.8312610399
 C         -4.6826439103        3.2330136107        0.6118327092
 H         -5.1660937901        4.0698107407        0.1028974190
 H         -4.8454141707        3.3587342808        1.6853093992
 C         -5.3689226901        1.9344351507        0.1793832491
 H         -6.3516221103        1.9112370107        0.6593767787
 H         -5.5489862497        1.9201222106       -0.8923145710
 C         -4.6453063503        0.6613241107        0.6052006294
 H         -4.4282827907        0.7129654708        1.6784636895
 H         -5.3329278202       -0.1859345493        0.4922476792
 H         -1.6542351897        3.4343177606       -1.1039659997
 H         -3.1883380395        4.1658330506       -1.6023695603
 H         -4.1412719793        2.0231123306       -2.1354922305
 H         -2.5059787091        2.0238655205       -2.7894571199
 O         -1.5693246495        0.2721625806       -1.6107548294
 C         -0.9578258297       -0.8424648594       -1.0716863591
 O          0.1071624205       -1.1594600694       -1.6362277287
 O         -3.3224865706       -1.4833955892        1.5788904700
 C         -0.9335799503       -2.6800024192        0.6669564610
 C          0.5333041496       -2.4025916792        0.8855701815
 C          1.5519006897       -3.2836042992        0.5466873619
 C          2.8767906697       -2.9442203792        0.7642054524
 C          3.2152521595       -1.7133650192        1.2945797524
 C          2.2024809093       -0.8243843792        1.6354186820
 C          0.8782934694       -1.1848061892        1.4606094715
 H          0.1051942793       -0.4798347692        1.7323285812
 N          2.4836251792        0.4683477209        2.1333859420
 S          2.1252805295        1.7262106608        1.0783041318
 O          2.5307156793        2.9312236008        1.7719213319
 O          0.7437263297        1.6536760308        0.6821708213
 C          3.2251346600        1.4426870107       -0.2978737078
 C          2.8889192704        0.5108186506       -1.2590453478
 C          3.8058828308        0.2337138306       -2.2627847575
 C          5.0304974708        0.8822421106       -2.2868585671
 C          5.3507027004        1.8168155006       -1.3130945170
 C          4.4433792900        2.0961800907       -0.3047564374
 H          4.6460317998        2.8148389308        0.4730796027
 H          6.3025128504        2.3227311306       -1.3341187567
 H          5.7381576210        0.6581478005       -3.0694860068
 H          3.5494621510       -0.4939111095       -3.0160304475
 H          1.9286196504        0.0186658906       -1.2264896581
 H          3.4377412990        0.5777213009        2.4517742224
 H          4.2490622994       -1.4359369092        1.4368565328
 H          3.6564660498       -3.6402106192        0.4951288727
 H          1.3123688599       -4.2313859593        0.0936317119
 H         -1.4178143107       -2.7307313892        1.6575469908
 C         -1.2065511300       -4.0118696093       -0.0167352290
 C         -2.3792208597       -4.1878943494       -0.9333611294
 C         -0.9872790295       -4.2106517794       -1.4857452589
 H         -0.5867185694       -5.1558935994       -1.8217166187
 H         -0.6460332693       -3.3606160994       -2.0549725089
 H         -2.9321706297       -5.1140545994       -0.8845006096
 H         -2.9944343896       -3.3220796294       -1.1322194797
 H         -0.9780970103       -4.8546176193        0.6284165411
