  62
        -98.94369052
 C          1.7553517194        0.5039876203        0.4899372800
 C          2.9480142195        0.4871566404        1.2511158199
 C          4.1892870295        0.6935748795        0.4968483697
 C          4.1358971895        0.9026791688       -0.8314217104
 C          5.3136470695        1.1444023180       -1.7363035406
 C          6.0055643791       -0.1394141425       -2.2149321699
 C          6.8290171889       -0.8696802522       -1.1532161495
 H          7.4279347086       -1.6204720627       -1.6726444792
 H          7.5208926992       -0.1685586922       -0.6854180800
 C          5.9922904787       -1.5683997014       -0.0723679591
 H          4.9616581087       -1.6717735912       -0.4200281090
 H          6.3770176584       -2.5777432414        0.0907004814
 C          5.9891756990       -0.8608409706        1.2828303605
 H          5.3396213889       -1.4208146500        1.9607018108
 H          6.9976979590       -0.8678187607        1.7022157205
 C          5.4884932295        0.5888848795        1.2371324597
 H          6.2405380197        1.2324895190        0.7814206194
 H          5.3148050597        0.9238563501        2.2627199796
 H          5.2474771788       -0.8156215225       -2.6169040795
 H          6.6730915591        0.1362899868       -3.0345634201
 H          4.9296193797        1.6742906676       -2.6105409708
 H          6.0389449798        1.7839282780       -1.2326472509
 O          2.9656983795        0.9360781989       -1.5225441403
 C          1.7509017694        0.7149826796       -0.8890313301
 O          0.7643402994        0.7385302295       -1.6479850101
 O          2.9738395695        0.3047228810        2.4982539800
 C          0.4311023094        0.2635962312        1.1908565202
 C         -0.2491485310       -0.9502237589        0.6078601509
 C          0.4868207686       -2.1211858293        0.4403892915
 C         -0.0932470318       -3.2481641694       -0.1068512079
 C         -1.4236951718       -3.2370727091       -0.4886979978
 C         -2.1709039515       -2.0793045788       -0.3149282084
 C         -1.5828629811       -0.9467620887        0.2333454909
 H         -2.1797603608       -0.0605686984        0.3643182405
 N         -3.5117074615       -2.0282871586       -0.7167667684
 S         -4.6361935511       -1.1397543477        0.1387000212
 O         -4.3962651511       -1.2011784971        1.5617609612
 O         -5.9143695613       -1.6531961576       -0.3069277185
 C         -4.4494849206        0.5328088719       -0.4423483897
 C         -4.6545666002        1.5692758624        0.4469820497
 C         -4.5421256298        2.8745204821       -0.0052900410
 C         -4.2284152998        3.1190921113       -1.3331944911
 C         -4.0298215402        2.0671152108       -2.2143444506
 C         -4.1445354306        0.7597863011       -1.7694947399
 H         -3.9877468209       -0.0786644893       -2.4273649794
 H         -3.7808341102        2.2608585301       -3.2453302007
 H         -4.1359412395        4.1353303511       -1.6827937717
 H         -4.6961305995        3.6943378626        0.6784838186
 H         -4.8844784802        1.3323826231        1.4738705899
 H         -3.8928880318       -2.8929471586       -1.0705430179
 H         -1.8779365022       -4.1155841492       -0.9212024173
 H          0.4926568279       -4.1459740696       -0.2358907074
 H          1.5260434986       -2.1320190094        0.7404156514
 H          0.6890444794        0.0413569716        2.2374334103
 C         -0.4210624702        1.5146206514        1.1553086295
 C         -1.4228215001        1.7784589223        2.2381212894
 C         -0.1671649998        2.5926449319        2.1643536789
 H         -0.2376787795        3.6220875317        1.8473538184
 H          0.6053659802        2.4130871720        2.8977816390
 H         -2.3559323999        2.2495850525        1.9691762092
 H         -1.5130001903        1.0456758228        3.0260050998
 H         -0.6670877802        1.8220667310        0.1447720494
