  62
        -98.94414205
 C         -2.1986389650       -0.7744364940       -0.0254229747
 C         -2.8977097575       -0.0720438069        0.9840568602
 C         -3.6941925234        1.0772820915        0.5340926296
 C         -3.6837199956        1.4140471707       -0.7689613102
 C         -4.4896170540        2.5268984043       -1.3726023934
 C         -5.8564663138        2.0225161508       -1.8565124142
 C         -6.6108023148        1.1905582832       -0.8193485818
 H         -7.5715585331        0.9152810547       -1.2595929136
 H         -6.0625935249        0.2630413382       -0.6389984464
 C         -6.8479509134        1.9060336361        0.5179484009
 H         -6.7207908643        2.9817215717        0.3908211900
 H         -7.8812143103        1.7362078644        0.8277709205
 C         -5.9557306378        1.4227830377        1.6628381957
 H         -6.3494035979        1.8316666502        2.5972529355
 H         -6.0093811929        0.3334701850        1.7346186935
 C         -4.4787145545        1.8271976557        1.5738037110
 H         -4.4010668567        2.9047468933        1.4141341110
 H         -4.0101022847        1.5881409339        2.5332966951
 H         -5.7026608869        1.4049311710       -2.7443097040
 H         -6.4605641270        2.8852775243       -2.1429102710
 H         -4.6221820417        3.3153683577       -0.6342239635
 H         -3.9377507024        2.9278335328       -2.2244143311
 O         -2.9636836763        0.7420284557       -1.7028256141
 C         -2.2108074418       -0.3725641189       -1.3614680044
 O         -1.6095641239       -0.8986504606       -2.3155915586
 H          0.0649014795        0.1901680790        0.8485127661
 C          0.6668973579       -0.5665050830        0.3589887970
 C          0.0782328313       -1.7773264282        0.0140084675
 C          0.8672099100       -2.7439008188       -0.5951038611
 C          2.2002975263       -2.4901919940       -0.8692380927
 C          2.7753505018       -1.2766641389       -0.5418994294
 C          1.9999942251       -0.3075348790        0.0817852165
 N          2.5744622710        0.9330241022        0.4137372320
 S          3.9922760466        0.9259881431        1.3156984761
 O          4.0776373271       -0.2465465393        2.1553255226
 O          4.0161963248        2.2045442837        1.9923874698
 C          5.2817312022        0.8945992437        0.0887281054
 C          5.3113815483        1.9076622754       -0.8495227476
 C          6.3117009427        1.9020493365       -1.8083778179
 C          7.2611193537        0.8908254383       -1.8111645926
 C          7.2196244537       -0.1170898788       -0.8600544891
 C          6.2211671024       -0.1177280109        0.1016673829
 H          6.1457365696       -0.8828922133        0.8577465521
 H          7.9588110331       -0.9019110721       -0.8639010590
 H          8.0380365304        0.8888077835       -2.5592733089
 H          6.3472562529        2.6842983645       -2.5494507229
 H          4.5570287985        2.6758065438       -0.8102721483
 H          1.9149204655        1.5914803748        0.8025842650
 H          3.8105249260       -1.0731801462       -0.7616370428
 H          2.7990425009       -3.2486247170       -1.3498955545
 H          0.4378544646       -3.6960059254       -0.8598432586
 C         -1.3759223592       -1.9901659987        0.3580602083
 H         -1.4552786504       -2.0631110407        1.4537315115
 C         -1.9687021449       -3.2412766566       -0.2561410933
 C         -1.8308814653       -4.5635219846        0.4356927522
 C         -3.1595568705       -3.8719876425        0.3991733390
 H         -3.9386551291       -4.2790030572       -0.2277526752
 H         -3.5249361567       -3.4149987194        1.3075604245
 H         -1.7001131578       -5.4497959729       -0.1666477687
 H         -1.2966015313       -4.5838320467        1.3736198438
 H         -1.9455507339       -3.2222201563       -1.3399298587
 O         -2.8524128413       -0.3876292852        2.2050209871
