  62
        -98.93482729
 C         -2.2580016246       -0.7654753459       -0.0760733229
 C         -3.5482807300       -1.1518657426        0.3503245196
 C         -4.6878013234       -0.3839443331       -0.1879926798
 C         -4.4391637308        0.6251984721       -1.0436780873
 C         -5.4256790639        1.5672234600       -1.6810158056
 C         -5.9343338058        2.6413283430       -0.7051838631
 C         -6.2883716299        2.1299873560        0.6889513595
 H         -5.4136165896        1.6434274793        1.1243628491
 H         -6.5193953511        2.9982439125        1.3117634349
 C         -7.4822030952        1.1802800901        0.7507421514
 H         -7.6680695634        0.9609497166        1.8052410825
 H         -8.3648266685        1.6891593482        0.3569607673
 C         -7.3183060322       -0.1487277434        0.0109987272
 H         -7.4363660948       -0.0171481243       -1.0610820230
 H         -8.1323102004       -0.8038622057        0.3348055647
 C         -6.0196342734       -0.8905358644        0.3117085579
 H         -6.1068409764       -1.9143273628       -0.0719265147
 H         -5.9115383904       -0.9991104529        1.3968396099
 H         -6.8047635643        3.1266190722       -1.1497636520
 H         -5.1488345521        3.3927740982       -0.5934590103
 H         -4.9001463068        2.0630340120       -2.5001281798
 H         -6.2522966159        1.0077490320       -2.1087775460
 O         -3.1734328313        0.9631719265       -1.4270230462
 C         -2.0584479539        0.2888412094       -0.9654504683
 O         -0.9747872706        0.7148236294       -1.4115536377
 O         -3.7482942794       -2.0973270043        1.1605571370
 C         -1.0514862246       -1.5267790358        0.4408880950
 C         -0.0836833865       -0.5757293162        1.0992220346
 C         -0.5560341371        0.2796324767        2.0919495598
 C          0.2891049888        1.1821161188        2.7062374093
 C          1.6218802873        1.2536856923        2.3403754645
 C          2.1082955209        0.3940750274        1.3630953627
 C          1.2584096167       -0.5227386356        0.7585712399
 H          1.6569154535       -1.1734742839        0.0000570001
 N          3.4745507655        0.4174391354        1.0211077357
 S          3.9725287862        0.3038662614       -0.5878003330
 O          3.5152794671        1.4515815901       -1.3411698931
 O          3.6267820728       -0.9927197130       -1.1096244118
 C          5.7379629706        0.3957662736       -0.3477717585
 C          6.4119612506        1.5699294279       -0.6229364730
 C          7.7804477373        1.6239805656       -0.4076923138
 C          8.4470355096        0.5099649323        0.0791908505
 C          7.7566884025       -0.6622344306        0.3505992403
 C          6.3891918573       -0.7230339239        0.1362440575
 H          5.8124999704       -1.6134337901        0.3243385268
 H          8.2788045413       -1.5271594688        0.7268346723
 H          9.5117392346        0.5544222462        0.2457546995
 H          8.3199814640        2.5328070720       -0.6205441142
 H          5.8532121650        2.4081208395       -1.0075022305
 H          3.9520397878        1.1993580030        1.4517327374
 H          2.2801447132        1.9691045981        2.8102403122
 H         -0.0927240250        1.8435303422        3.4696200156
 H         -1.6013232458        0.2322881144        2.3668002088
 H         -1.4430159828       -2.2108784851        1.2088280377
 C         -0.4344580782       -2.3479108197       -0.6712361908
 C          0.3163632874       -3.6051257336       -0.3530960421
 C         -1.0284716079       -3.6810563709       -1.0094782528
 H         -1.0827224115       -3.9719245700       -2.0478804507
 H         -1.8697242260       -4.0111125719       -0.4175887060
 H          1.1922262679       -3.8395633450       -0.9392834737
 H          0.3900357597       -3.8916338901        0.6850768028
 H         -0.0780308316       -1.7360746108       -1.4939482545
