  62
        -98.93156667
 C         -2.2544406255       -0.5616026964        0.2453544817
 C         -3.4890024517       -0.8272590375        0.8873362904
 C         -4.7158333414       -0.5026816363        0.1396398226
 C         -4.6133690075        0.0567912794       -1.0801673256
 C         -5.6729836415        0.4539026666       -2.0867644433
 C         -7.1400697800        0.5561917131       -1.6773063612
 C         -7.4541806124        1.6880382987       -0.6995719981
 H         -8.5020353966        1.6026334791       -0.4037720314
 H         -7.3318785827        2.6409143273       -1.2205987730
 C         -6.5862048424        1.7354512029        0.5554324155
 H         -6.9140107885        2.5879763213        1.1565472122
 H         -5.5468948028        1.9206855971        0.2759839101
 C         -6.6480773742        0.4923447173        1.4408138306
 H         -7.6866541694        0.2738728902        1.6965101623
 H         -6.1165436132        0.7220012196        2.3682711987
 C         -6.0118117758       -0.7766067958        0.8472087059
 H         -6.7047121897       -1.2972554095        0.1905299762
 H         -5.7727862626       -1.4518120312        1.6740142849
 H         -7.4886964967       -0.3943679003       -1.2845751822
 H         -7.7053625519        0.7460834988       -2.5937682997
 H         -5.5916432526       -0.2718350360       -2.9035907402
 H         -5.3472157287        1.4151938682       -2.4965202029
 O         -3.4004339411        0.3275395109       -1.6446216669
 C         -2.1995351325        0.0428331427       -1.0096815869
 O         -1.1954115917        0.3799162387       -1.6633619102
 O         -3.5659837842       -1.3210347939        2.0442357870
 C         -0.9820309602       -0.8986420598        0.9995314190
 C         -0.0022655647        0.2454159118        0.9354168302
 C         -0.3723857415        1.4743825855        1.4773592418
 C          0.4948398190        2.5484876127        1.4531247039
 C          1.7614168541        2.4146945481        0.9112180275
 C          2.1388809481        1.1948521242        0.3647948311
 C          1.2571508751        0.1226322768        0.3729181044
 H          1.5720864505       -0.8028398125       -0.0794555086
 N          3.4091412618        1.0247726239       -0.2078821131
 S          4.1747086954       -0.4656603847       -0.0084766231
 O          3.7786946423       -1.3488346418       -1.0763931882
 O          3.9608317801       -0.9542804274        1.3354199225
 C          5.8809954517        0.0089414655       -0.2236523371
 C          6.6473276957        0.2932970609        0.8911150439
 C          7.9645648580        0.6874200385        0.7165967837
 C          8.4897963716        0.7923933018       -0.5626181913
 C          7.7086933323        0.5032988184       -1.6717888171
 C          6.3909055175        0.1080973836       -1.5044648706
 H          5.7484324037       -0.1353605022       -2.3347471381
 H          8.1213231508        0.5830730190       -2.6645589993
 H          9.5154398304        1.0982086884       -0.6959730230
 H          8.5751671591        0.9094809056        1.5768906666
 H          6.1993405680        0.1877290112        1.8661039590
 H          4.0323714067        1.8004611841       -0.0317754725
 H          2.4447432290        3.2503595616        0.9002097151
 H          0.1889245255        3.4959965758        1.8710154747
 H         -1.3577691553        1.5755580605        1.9126613322
 H         -1.3058643183       -1.0021565277        2.0496872460
 C         -0.3616684233       -2.2313098955        0.6082319162
 C         -1.2033125592       -3.3654071157        0.1074905946
 C         -0.2493608007       -2.6748628283       -0.8182668047
 H          0.6493321889       -3.1932761301       -1.1211884669
 H         -0.6467084733       -2.0193958374       -1.5775557689
 H         -0.9674078559       -4.3648910800        0.4405558395
 H         -2.2604145081       -3.1840748406       -0.0222124104
 H          0.4649256279       -2.4978802698        1.2618289514
