  62
        -98.93562060
 C          2.1229359799        0.4778078649        0.8304491878
 C          2.4582639976        0.1937737826       -0.5169651903
 C          3.2462374793       -1.0314368645       -0.7337404330
 C          3.5335577927       -1.8304224591        0.3087201759
 C          4.3818159659       -3.0661413973        0.2378545896
 C          5.8575077814       -2.7393038082        0.5073840139
 C          6.3895876172       -1.5619726776       -0.3100113662
 H          5.8821723686       -0.6479674426        0.0073394183
 H          7.4463577059       -1.4444731976       -0.0605672430
 C          6.2376871812       -1.7228839121       -1.8291065898
 H          7.1718920443       -1.4219754852       -2.3079005182
 H          6.0707203506       -2.7719857544       -2.0758075581
 C          5.1263928348       -0.8736759022       -2.4493180788
 H          5.2471406556       -0.8961820673       -3.5356167088
 H          5.2390708172        0.1657331962       -2.1302836806
 C          3.6922311111       -1.3212485863       -2.1392111598
 H          3.0181426218       -0.7552899025       -2.7891573073
 H          3.5801832206       -2.3826544533       -2.3692732584
 H          6.4523645409       -3.6295833556        0.2956030277
 H          5.9710852493       -2.4990864315        1.5671619516
 H          4.2728700289       -3.5200720514       -0.7451325244
 H          4.0304393663       -3.7694448288        0.9946897552
 O          3.1124167138       -1.5723298293        1.5737877044
 C          2.4091463965       -0.4155062069        1.8659073025
 O          2.0856596901       -0.3046430584        3.0659799287
 O          2.1313165460        0.9148603995       -1.4934845078
 C          1.3635780325        1.7353293098        1.2169564960
 C          0.1880987780        1.9421443647        0.2930666755
 C          0.0369943189        3.0522159063       -0.5259200904
 C         -1.0778235150        3.1754484433       -1.3370091239
 C         -2.0608514584        2.2039048631       -1.3491500651
 C         -1.9209044755        1.0891341165       -0.5320219548
 C         -0.8071051244        0.9716998419        0.2852573335
 H         -0.6951522222        0.1032474764        0.9244195096
 N         -2.9101579364        0.0827103194       -0.5465691859
 S         -4.5077822030        0.6103304418       -0.3685428124
 O         -4.9683311633        1.1132939301       -1.6378462455
 O         -4.6046117845        1.5270132652        0.7463921199
 C         -5.3395664884       -0.9187546170        0.0117402085
 C         -5.7355249000       -1.7392411658       -1.0272546342
 C         -6.3650937685       -2.9376394010       -0.7307560861
 C         -6.5861561165       -3.2938733269        0.5913915836
 C         -6.1834707574       -2.4595834304        1.6233971307
 C         -5.5521711014       -1.2601287400        1.3339215677
 H         -5.2320770780       -0.5764815803        2.1041674097
 H         -6.3591610582       -2.7374606785        2.6502261152
 H         -7.0783608888       -4.2260455051        0.8196342827
 H         -6.6820746288       -3.5880902637       -1.5298761972
 H         -5.5517108811       -1.4165432985       -2.0386504429
 H         -2.7100223425       -0.6415729368        0.1307063277
 H         -2.9350367518        2.2949458267       -1.9732521417
 H         -1.1813298706        4.0411583642       -1.9740078882
 H          0.8017475895        3.8110030719       -0.5474211884
 H          0.9604462998        1.5247385131        2.2217888835
 C          2.2426759740        2.9693582879        1.3580792511
 C          3.6747071489        2.8474434320        1.7842326259
 C          3.3421611224        3.2919826348        0.3932547304
 H          3.5076488967        4.3277659980        0.1346725103
 H          3.5080149339        2.6077936247       -0.4233594180
 H          4.0668877604        3.5742510836        2.4796195913
 H          4.0708281012        1.8519075828        1.9247640788
 H          1.6911504145        3.8104506580        1.7673430118
