  62
        -98.93901911
 C          1.5302800702        1.1099047709        0.0847286519
 C          2.6437215805        0.8825532117       -0.7597601580
 C          3.8483255102        0.3517698710       -0.1016666681
 C          3.8297837398        0.1093506496        1.2210821116
 C          4.9702576695       -0.4728524312        2.0039387314
 C          4.8806317595       -2.0039471413        2.0664650897
 C          4.6481886599       -2.6653880899        0.7079886790
 H          3.6597814000       -2.3830541294        0.3376062589
 H          4.6328653098       -3.7453970700        0.8704368778
 C          5.7029572503       -2.3233799288       -0.3535962903
 H          5.9895951204       -3.2416643482       -0.8706357112
 H          6.5992453201       -1.9300612693        0.1275774104
 C          5.2291435207       -1.3387047176       -1.4242803094
 H          4.2798434908       -1.6818728272       -1.8437412101
 H          5.9634901209       -1.3389760168       -2.2343126592
 C          5.0556300405        0.1143576319       -0.9646844480
 H          4.9103218108        0.7287354528       -1.8580670574
 H          5.9633696004        0.4513025013       -0.4599424773
 H          4.0527849892       -2.2762525620        2.7251702992
 H          5.8039739393       -2.3861250118        2.5056887297
 H          5.9098367497       -0.1723276607        1.5442987020
 H          4.9292013892       -0.0740870323        3.0189551818
 O          2.7378112295        0.3283103088        1.9969033815
 C          1.5626243197        0.8153904794        1.4505225916
 O          0.6326491394        0.9482998386        2.2697083514
 H         -1.2691053500       -0.3296127995        0.5087863494
 C         -1.2019366296       -0.3958732984       -0.5669990906
 C         -0.4544394994        0.5509820723       -1.2567742094
 C         -0.3299113489        0.4272357437       -2.6348354895
 C         -0.9336090987       -0.6267549256       -3.2988488308
 C         -1.7010128989       -1.5505444063       -2.6114464920
 C         -1.8415278894       -1.4276116577       -1.2355161519
 N         -2.6611784397       -2.3074018285       -0.4818002431
 S         -4.1764779398       -1.6485759088       -0.1411527130
 O         -4.9027812000       -2.6846210295        0.5581421857
 O         -4.7977485194       -1.1673793275       -1.3581832527
 C         -3.8415546201       -0.2803506299        0.9403252886
 C         -3.5536873606       -0.5340570113        2.2664383384
 C         -3.2580573708        0.5316745078        3.1008131696
 C         -3.2534800907        1.8230377483        2.5964073110
 C         -3.5517237602        2.0606675397        1.2634478811
 C         -3.8487900199        1.0000732206        0.4233404499
 H         -4.0803739796        1.1376486417       -0.6208358200
 H         -3.5471510800        3.0678366901        0.8770575322
 H         -3.0112895609        2.6491052276        3.2462488519
 H         -3.0217757312        0.3539143567        4.1374781495
 H         -3.5657172207       -1.5532172517        2.6168151874
 H         -2.8047334595       -3.1999147280       -0.9370520741
 H         -2.1937782588       -2.3579740157       -3.1329836730
 H         -0.8164485083       -0.7218715944       -4.3679415608
 H          0.2640276813        1.1404776043       -3.1819064085
 C          0.2132356304        1.6429346214       -0.4577517780
 H         -0.4138090299        1.8353476505        0.4232970020
 C          0.3783465607        2.9382317422       -1.2238684366
 C         -0.8434317792        3.7476346726       -1.5359741062
 C          0.1383629004        4.2353182315       -0.5145710653
 H          0.7631645405        5.0802971418       -0.7622939742
 H         -0.1409242099        4.1895723104        0.5278620445
 H         -1.7910418993        3.3640437322       -1.1890354069
 H         -0.8960327589        4.2594344336       -2.4846129157
 H          1.1738469209        2.9121524130       -1.9570332664
 O          2.6510506809        1.1134203330       -1.9967659678
