  62
        -98.93658763
 C          2.3642848807        0.4587084400        0.0502000190
 C          3.4695904910        0.4246996402        0.9316547687
 C          4.4696049710       -0.6272499197        0.6860298385
 C          4.2799072508       -1.4924746798       -0.3250991314
 C          5.1374530509       -2.6665404697       -0.7268394516
 C          6.6587935808       -2.4629618396       -0.7376681720
 C          7.1221279206       -1.0480517795       -1.1137076621
 H          7.8723050204       -1.1185980695       -1.9035743923
 H          6.2842406104       -0.4726755196       -1.5111272819
 C          7.7476810108       -0.2928755694        0.0615251277
 H          8.4047176310       -0.9746630993        0.6059464675
 H          8.3692472806        0.5154724506       -0.3312109725
 C          6.7561626710        0.3344217105        1.0407601079
 H          7.3241732312        0.7365041006        1.8832327678
 H          6.2493744108        1.1784823304        0.5649798380
 C          5.6731088112       -0.6119891996        1.5841864182
 H          6.0682812314       -1.6117426795        1.7466578781
 H          5.3291655214       -0.2128692196        2.5423427283
 H          7.0684720311       -2.7223483595        0.2375245979
 H          7.0675467307       -3.1811863495       -1.4504493721
 H          4.8936432511       -3.5054696097       -0.0685633715
 H          4.7969837106       -2.9356976498       -1.7295215115
 O          3.1934318406       -1.4270475899       -1.1461254811
 C          2.2169256506       -0.4563506800       -0.9905834609
 O          1.2952123004       -0.5158974902       -1.8260172307
 O          3.6092042111        1.2296014802        1.8914382087
 C          1.3007144107        1.5239069799        0.2458814793
 C         -0.0378055192        0.8705315198        0.4836109896
 C         -0.1612175288       -0.0285506902        1.5405073997
 C         -1.3625898487       -0.6594576703        1.7959357700
 C         -2.4699489589       -0.4111321805        1.0027615203
 C         -2.3623483393        0.4909274895       -0.0454219498
 C         -1.1533150594        1.1307250896       -0.2948785101
 H         -1.0876306797        1.8269035196       -1.1164424502
 N         -3.4753905895        0.7402285994       -0.8622660695
 S         -4.9746282894        1.0045368992       -0.1637132791
 O         -5.7140933797        1.7716261391       -1.1422461490
 O         -4.8509463091        1.5907329293        1.1506095608
 C         -5.6889567592       -0.6220814909       -0.0438623489
 C         -6.1504823188       -1.0844296109        1.1728859112
 C         -6.7132764587       -2.3495513409        1.2396090914
 C         -6.8054871489       -3.1250329510        0.0941236015
 C         -6.3399168292       -2.6449111310       -1.1209885387
 C         -5.7767804394       -1.3810440009       -1.1943490589
 H         -5.4062566197       -0.9716351409       -2.1193469490
 H         -6.4131324494       -3.2508249610       -2.0097995386
 H         -7.2428684588       -4.1094680410        0.1483105816
 H         -7.0762958684       -2.7246025509        2.1830408815
 H         -6.0545247387       -0.4483105708        2.0385638612
 H         -3.2988079598        1.3842598894       -1.6188614396
 H         -3.4088599088       -0.9048059206        1.1924805905
 H         -1.4396447784       -1.3556370503        2.6174252400
 H          0.7046124713       -0.2272896601        2.1576080595
 H          1.5870686808        2.0567765500        1.1646668592
 C          1.3168370103        2.5041261399       -0.9077278008
 C          0.8088410702        3.9010998598       -0.7152802707
 C          2.2786301802        3.6521362400       -0.8683226311
 H          2.7609617699        3.9530553600       -1.7862905912
 H          2.9077038804        3.7422362601        0.0051460288
 H          0.2829636899        4.3775553797       -1.5292004006
 H          0.4378812004        4.1671283498        0.2631164594
 H          1.1525222101        2.0250505798       -1.8667499207
