  62
        -98.93507241
 C         -1.7081529190       -1.2377966703        0.2135474096
 C         -1.7593840093        0.1477665596        0.5033273201
 C         -2.9310346195        0.9006038695        0.0193597106
 C         -3.8810829694        0.2372560396       -0.6652488796
 C         -5.1827584596        0.7790307596       -1.1898272792
 C         -6.2364203795        0.9557070489       -0.0803200790
 C         -5.7009150894        1.4852291385        1.2489038612
 H         -6.5042612693        1.4057264680        1.9863003512
 H         -4.8869805492        0.8423021785        1.5899796208
 C         -5.2283818797        2.9371329286        1.2319563717
 H         -4.8796953196        3.1801092083        2.2390854017
 H         -6.0795092399        3.5854092985        1.0100314921
 C         -4.1102729199        3.2636171592        0.2427522017
 H         -3.7742057401        4.2826508292        0.4568826120
 H         -4.4915339201        3.2707282795       -0.7747693283
 C         -2.8738557197        2.3737983494        0.3433526211
 H         -2.0984660599        2.7949383998       -0.3089728788
 H         -2.4693695896        2.4364368791        1.3598259111
 H         -7.0211896797        1.6182918289       -0.4485096086
 H         -6.6843572293       -0.0217998213        0.1136278807
 H         -5.0072803299        1.7123864898       -1.7169366588
 H         -5.5595455996        0.0535671298       -1.9138666094
 O         -3.7884937692       -1.0938443403       -0.9317368001
 C         -2.7059125690       -1.8646886102       -0.5330074106
 O         -2.7734218188       -3.0500740701       -0.9037472110
 O         -0.8578246493        0.7374552395        1.1589954102
 C         -0.4879013088       -1.9833305503        0.7224734591
 C          0.6532933710       -1.8335289096       -0.2511313310
 C          0.4791435209       -2.0885078391       -1.6082306411
 C          1.5342618708       -1.9357117586       -2.4883234912
 C          2.7725485507       -1.5111011185       -2.0376402512
 C          2.9560597909       -1.2503005590       -0.6849674911
 C          1.8984536910       -1.4227433996        0.1989464490
 H          2.0549643311       -1.2159648200        1.2465962691
 N          4.2065008108       -0.8363464190       -0.1990426211
 S          4.3285083607        0.4406629506        0.8776394194
 O          5.7447346607        0.7298118109        0.9255613793
 O          3.7091541710        0.0888018900        2.1287103193
 C          3.4710072104        1.7898642408        0.0878299701
 C          2.1095010803        1.9430032904        0.2522327003
 C          1.4699779901        2.9713652706       -0.4227633092
 C          2.1911223598        3.8223104011       -1.2444331190
 C          3.5596297098        3.6547330614       -1.3978422292
 C          4.2056202901        2.6278666313       -0.7303633997
 H          5.2685796801        2.4676751015       -0.8126304899
 H          4.1213016296        4.3193467018       -2.0343897790
 H          1.6848497895        4.6203946012       -1.7644217886
 H          0.4055661300        3.0869490203       -0.2919327090
 H          1.5496843306        1.2797938801        0.8920040301
 H          4.9208104807       -0.7620272985       -0.9093217612
 H          3.5927906506       -1.3855679181       -2.7278903112
 H          1.3897855707       -2.1415333482       -3.5381819012
 H         -0.4896064691       -2.4122640392       -1.9601015611
 H         -0.1952166388       -1.4565416206        1.6459297493
 C         -0.7597630885       -3.4314603805        1.1002227786
 C         -0.2344161583       -4.5999711101        0.3273623280
 C          0.3467290018       -4.2708420005        1.6676593681
 H          0.1289162620       -4.9189720008        2.5030169978
 H          1.3357096417       -3.8368886803        1.6919344981
 H         -0.8748446282       -5.4634978101        0.2338527878
 H          0.3642846015       -4.4071684796       -0.5487473120
 H         -1.7410599984       -3.5564036908        1.5460577586
