  62
        -98.93628372
 C         -1.6455163131       -1.2708123899        0.5421703610
 C         -1.3606205005       -0.3154307343       -0.4637895311
 C         -1.9977152004        0.9953953145       -0.2952576610
 C         -2.7253995224        1.2509727583        0.8055898980
 C         -3.3995915466        2.5538453075        1.1404236274
 C         -4.7739604223        2.7391670994        0.4820129269
 C         -4.7451994867        3.0105817476       -1.0226307236
 H         -5.7478106156        3.3350243136       -1.3080760868
 H         -4.0641752982        3.8372530346       -1.2268338581
 C         -4.3559116507        1.7963745653       -1.8771466972
 H         -4.4574915147        0.8859776516       -1.2820193592
 H         -5.0453301581        1.7081029134       -2.7196254092
 C         -2.9407822252        1.8551613425       -2.4519831285
 H         -2.8637624467        2.6904943185       -3.1511507303
 H         -2.7573864447        0.9313765546       -3.0059603887
 C         -1.8377420030        2.0004591691       -1.3951932463
 H         -0.8724372349        1.8175889402       -1.8733009693
 H         -1.8326278088        3.0107746138       -0.9860706787
 H         -5.3777262904        1.8507506415        0.6814108307
 H         -5.2571995978        3.5865069481        0.9739963274
 H         -3.5312356600        2.5643227249        2.2248990757
 H         -2.7438294705        3.3812736805        0.8665655905
 O         -2.9181214458        0.3272916332        1.7863305036
 C         -2.3888803865       -0.9471040010        1.6749567391
 O         -2.6404957793       -1.6950870312        2.6458019828
 H          0.4890541884       -1.3259462447        2.0269678643
 C          1.0678181677       -1.7040019914        1.1916776356
 C          0.4368769403       -2.5018416318        0.2373954241
 C          1.2114694424       -2.9679590322       -0.8164418390
 C          2.5478487668       -2.6154723230       -0.9267936465
 C          3.1419115889       -1.7664987261       -0.0129835239
 C          2.3838957006       -1.3086476897        1.0557821107
 N          2.9518706578       -0.3436530309        1.9414496134
 S          2.4470038631        1.2059939432        1.4803940243
 O          3.0832578478        2.1165510956        2.4100533458
 O          1.0028027005        1.2987965733        1.4192692676
 C          3.1663629539        1.3701997026       -0.1352398807
 C          2.4376563520        0.9931692975       -1.2460229249
 C          3.0372594229        1.0788822109       -2.4933390192
 C          4.3422748687        1.5327945527       -2.6067873999
 C          5.0591557483        1.9066039228       -1.4797000513
 C          4.4684089294        1.8225805365       -0.2294599380
 H          4.9818253202        2.1022275753        0.6757333665
 H          6.0738649267        2.2591337870       -1.5710048307
 H          4.8025951933        1.5944285838       -3.5803294783
 H          2.4773955862        0.7821638906       -3.3656860647
 H          1.4264276925        0.6336757566       -1.1273534013
 H          2.6611163916       -0.4822620158        2.9012409596
 H          4.1663440734       -1.4484683860       -0.1164752280
 H          3.1232221322       -2.9859886720       -1.7609866433
 H          0.7855145305       -3.5833409929       -1.5874926716
 C         -1.0450718695       -2.6736506754        0.4723887559
 H         -1.1588481732       -3.0861473711        1.4893371482
 C         -1.9207314973       -3.5345098076       -0.4241939082
 C         -1.8364906558       -3.5922700399       -1.9171706125
 C         -1.4975506603       -4.8043790223       -1.0992506449
 H         -2.2016551563       -5.6235368516       -1.1009626851
 H         -0.4711991301       -5.1202607252       -1.0134450156
 H         -2.7650333999       -3.5952644738       -2.4700330694
 H         -1.0562105205       -3.0266614332       -2.3990561557
 H         -2.9288584710       -3.5387080562       -0.0132429925
 O         -0.6125922004       -0.5360821751       -1.4492975685
