  62
        -98.94095331
 C          2.0291247871        1.3478921405        0.3587232906
 C          2.4861917564        0.6267905740       -0.7725490886
 C          3.6747217086       -0.2110960974       -0.5551209947
 C          4.2604774346       -0.2525828048        0.6544193364
 C          5.4928557368       -1.0353902673        1.0180323301
 C          5.2159750399       -2.4996382879        1.3854273408
 C          4.8397305790       -3.4049694600        0.2117024191
 H          5.5865923278       -3.3056914655       -0.5765242559
 H          4.8833389752       -4.4340909540        0.5738737619
 C          3.4413355264       -3.1446831763       -0.3664219527
 H          2.8520799868       -2.5675802626        0.3503963274
 H          2.9228532826       -4.0953832293       -0.5110797004
 C          3.4360099067       -2.4170296997       -1.7111293924
 H          3.9043838611       -3.0478299154       -2.4699410011
 H          2.3964207382       -2.2509098050       -2.0064252045
 C          4.1481356222       -1.0578884589       -1.6974203482
 H          5.2276625145       -1.1987481545       -1.6482377856
 H          3.9033184488       -0.5347824883       -2.6250192072
 H          4.4222495526       -2.5278377135        2.1357633499
 H          6.1229008241       -2.8971415153        1.8467826062
 H          6.2087970645       -0.9941048885        0.1968078015
 H          5.9309126018       -0.5400116147        1.8873310059
 O          3.7862379988        0.4492237187        1.7183407931
 C          2.6451924809        1.2286874740        1.6067920736
 O          2.2804903569        1.7544846936        2.6779346750
 H         -0.1905585595       -0.1549409190        0.9286794428
 C         -0.6952461646        0.2435623006        0.0562110306
 C         -0.3131504877        1.4874501883       -0.4337031366
 C         -0.9712434759        1.9893127155       -1.5477829468
 C         -1.9633513209        1.2490755927       -2.1681577934
 C         -2.3241831890        0.0028826100       -1.6920988767
 C         -1.6806596988       -0.5033396218       -0.5692393058
 N         -2.0467875470       -1.7648385833       -0.0703949627
 S         -3.6766789878       -2.1246192160        0.0401009444
 O         -3.7794922078       -3.0837020036        1.1179274932
 O         -4.1664736707       -2.5664069450       -1.2418376210
 C         -4.4662842748       -0.5889893515        0.4899255585
 C         -5.4072638363       -0.0253318841       -0.3472384040
 C         -5.9825205848        1.1840976195        0.0088785604
 C         -5.6051867317        1.8075164180        1.1878661066
 C         -4.6609663528        1.2264801643        2.0208124052
 C         -4.0845332657        0.0165388218        1.6708354208
 H         -3.3512611721       -0.4631226409        2.2996019723
 H         -4.3684194391        1.7122260489        2.9379662104
 H         -6.0491886629        2.7514089401        1.4619954722
 H         -6.7189337007        1.6369236123       -0.6351323143
 H         -5.6687298823       -0.5426357616       -1.2559218300
 H         -1.5492831619       -2.0413596586        0.7624961593
 H         -3.0780112857       -0.5942512649       -2.1790701559
 H         -2.4568884938        1.6456295475       -3.0421873600
 H         -0.6886394467        2.9475064334       -1.9506120189
 C          0.7861241699        2.2196869588        0.2975729484
 H          0.4700091623        2.3333536413        1.3479935379
 C          1.0331747839        3.6249197716       -0.2308489713
 C          2.3793679642        4.2722425094       -0.1061825996
 C          1.8549981782        3.8878554395       -1.4554728149
 H          1.5402244456        4.6759142504       -2.1240354498
 H          2.2896751307        3.0377285584       -1.9563677882
 H          2.4218782555        5.3195662141        0.1530143792
 H          3.1809423528        3.6856558826        0.3193453831
 H          0.1766666933        4.2724086766       -0.0707495198
 O          1.9449504021        0.6700386633       -1.9060646256
