  62
        -98.94438912
 C         -2.1894222845       -1.2802528125        0.2357225992
 C         -2.2433505337       -0.5241832542       -0.9604185139
 C         -3.0552457201        0.6995360060       -0.9083951798
 C         -3.7050327589        1.0336429414        0.2204909044
 C         -4.5760779586        2.2439686012        0.4205438234
 C         -3.7991232085        3.5175667183        0.7820784223
 C         -2.9998599359        4.1397215557       -0.3638921653
 H         -3.6520831474        4.2783186927       -1.2267024161
 H         -2.6833261196        5.1310332483       -0.0335823216
 C         -1.7581806969        3.3373866520       -0.7782395792
 H         -0.9059284549        4.0126018064       -0.8858058014
 H         -1.5107037382        2.6206437037        0.0084005285
 C         -1.9048202519        2.5806331567       -2.0980526621
 H         -2.0377753545        3.2911058752       -2.9169535532
 H         -0.9795730292        2.0278990238       -2.2824853948
 C         -3.0683122252        1.5806398119       -2.1217839136
 H         -4.0173886552        2.1106033147       -2.1971408818
 H         -2.9542883311        0.9412280137       -3.0005915150
 H         -4.5262871672        4.2545343295        1.1303082952
 H         -3.1295012263        3.2924722160        1.6152462146
 H         -5.1713115495        2.4208151724       -0.4756924752
 H         -5.2516896975        2.0072716059        1.2452537930
 O         -3.6507790424        0.2690320664        1.3419589816
 C         -2.8885906361       -0.8848126073        1.3824002972
 O         -2.9189755690       -1.4741413852        2.4806615237
 O         -1.6555264154       -0.8281577000       -2.0336447817
 C         -1.3894522391       -2.5674255844        0.3771691007
 C          0.0834596383       -2.2759254335        0.5422736298
 C          0.7290514248       -2.5300938679        1.7470871261
 C          2.0788073909       -2.2609560587        1.8944385548
 C          2.8102220814       -1.7259922858        0.8489069903
 C          2.1683150318       -1.4498551712       -0.3517662698
 C          0.8175834684       -1.7306376690       -0.5010664852
 H          0.3229963977       -1.5035889638       -1.4334304850
 N          2.8861625223       -0.8840990983       -1.4168895084
 S          4.0166756613        0.2991943626       -1.0903084100
 O          4.0792464477        1.1071714012       -2.2879249287
 O          5.2565643767       -0.3174019088       -0.6863902229
 C          3.3646192427        1.2574660238        0.2682772571
 C          2.1027456432        1.8059159629        0.1519726960
 C          1.6017303039        2.5584158898        1.2017961057
 C          2.3648957142        2.7499233918        2.3433688543
 C          3.6307976625        2.1948714157        2.4439379861
 C          4.1369318039        1.4408963257        1.3975111812
 H          5.1149249911        0.9889246903        1.4333908130
 H          4.2226526314        2.3456703617        3.3322515562
 H          1.9677672216        3.3359084073        3.1571339876
 H          0.6168612678        2.9907668462        1.1254580977
 H          1.5267688321        1.6428859101       -0.7456188801
 H          2.3152539665       -0.6507324613       -2.2157971810
 H          3.8650427213       -1.5245182801        0.9431790661
 H          2.5681577419       -2.4704550656        2.8332578874
 H          0.1615290382       -2.9330254957        2.5733603389
 H         -1.7436602395       -3.0319170913        1.3067068505
 C         -1.6328674768       -3.5378808805       -0.7629155989
 C         -1.3266028260       -4.9894434171       -0.5567144376
 C         -2.7498266691       -4.5294967238       -0.6535065300
 H         -3.3131537648       -4.7711870781       -1.5423931560
 H         -3.3444638943       -4.5154750064        0.2485787177
 H         -0.9096048170       -5.5500628168       -1.3792274366
 H         -0.9562378385       -5.2894216334        0.4119622422
 H         -1.4401994292       -3.1163337146       -1.7403976152
