  62
        -98.94028818
 C         -2.0148448340       -0.9819680390        0.2808605632
 C         -2.3070517678        0.3990291371        0.1481454189
 C         -3.6889965096        0.7904526759        0.4675539993
 C         -4.5701269415       -0.1276048196        0.9002571858
 C         -6.0051899269        0.1243245936        1.2753012765
 C         -6.9694441939        0.1327660332        0.0811277224
 C         -6.8732789246        1.3609461310       -0.8250067804
 H         -7.7437169690        1.3415564019       -1.4838621240
 H         -6.9444076633        2.2646829178       -0.2189079422
 C         -5.6040175214        1.4155620225       -1.6866999689
 H         -5.1445133331        0.4250042831       -1.7214463819
 H         -5.8711875202        1.6796186753       -2.7124387077
 C         -4.5612229553        2.4291946572       -1.2150784678
 H         -4.9670054424        3.4396332622       -1.3014200048
 H         -3.6919766546        2.3599276435       -1.8743542836
 C         -4.0811767549        2.2170758159        0.2267657081
 H         -3.1956110618        2.8367828914        0.3890084301
 H         -4.8555596277        2.5232861095        0.9297604781
 H         -6.8014911945       -0.7703653714       -0.5102871965
 H         -7.9844423969        0.0827274763        0.4819989209
 H         -6.2971364196       -0.6850671786        1.9479780280
 H         -6.0830325022        1.0688988332        1.8144701045
 O         -4.2342297838       -1.4338429569        1.0708789765
 C         -2.9645063795       -1.8906065732        0.7590911570
 O         -2.8025582317       -3.1115258928        0.9561001624
 H          1.0406951239        0.3126566853       -1.1266980753
 C          1.2075271573        0.1721327740       -0.0701560483
 C          0.4298028749       -0.7344484130        0.6329182538
 C          0.6417790799       -0.8743725316        2.0006979911
 C          1.6033936431       -0.1211997577        2.6487005195
 C          2.3686444891        0.7927325456        1.9463795783
 C          2.1597603396        0.9438747072        0.5820659621
 N          2.9265279379        1.8820882292       -0.1359221296
 S          4.5911824120        1.7440582270       -0.0569112427
 O          5.0493488620        2.1681895689        1.2418261121
 O          5.0944490201        2.4906130481       -1.1875690227
 C          4.8978770465        0.0011170325       -0.2750329951
 C          4.8586951134       -0.5126939129       -1.5562605979
 C          5.0163039383       -1.8770071745       -1.7369556335
 C          5.1978357852       -2.7016091820       -0.6368819798
 C          5.2337744058       -2.1703422373        0.6429487025
 C          5.0816721157       -0.8055321916        0.8295641984
 H          5.1091065938       -0.3534567953        1.8070586346
 H          5.3761361201       -2.8140100079        1.4960014046
 H          5.3135441718       -3.7646455824       -0.7785808450
 H          4.9924378854       -2.2930129982       -2.7314802765
 H          4.7215858777        0.1630660295       -2.3852827198
 H          2.6228966130        1.9978522515       -1.0917189692
 H          3.1167271806        1.3968808636        2.4340805971
 H          1.7545042752       -0.2408309787        3.7109226274
 H          0.0340214525       -1.5779651291        2.5533495077
 C         -0.6432726061       -1.5589765339       -0.0316422869
 H         -0.6437321919       -2.5541122851        0.4407147774
 C         -0.3819678069       -1.7853124350       -1.5140095866
 C         -1.4732553797       -2.2946390313       -2.4064826869
 C         -0.9426975175       -0.9059259400       -2.5891953252
 H         -0.3285689183       -0.7041239513       -3.4551144291
 H         -1.5614762943       -0.0740362417       -2.2924857569
 H         -1.2296717565       -3.0431924477       -3.1451263767
 H         -2.4545986479       -2.4148716010       -1.9704445734
 H          0.6104831507       -2.1906727074       -1.6869413389
 O         -1.4811706059        1.2725270578       -0.2203624466
