  62
        -98.94145611
 C         -2.0272314664        0.3023729155       -0.1960244138
 C         -1.8888816077       -0.8640901597       -0.9816864629
 C         -1.9381406430       -2.1456519299       -0.2608229694
 C         -2.0373765882       -2.1424892082        1.0796520796
 C         -2.0756947563       -3.3312050275        2.0061727276
 C         -1.0705936673       -4.4611253799        1.7328826973
 C          0.2484910263       -4.0264941395        1.0750236736
 H          0.3515633803       -2.9393176570        1.1103956576
 H          1.0814564201       -4.4391261531        1.6486034606
 C          0.3838613023       -4.5275845631       -0.3658778059
 H          1.4409737707       -4.5095595501       -0.6426290796
 H          0.0559428281       -5.5693006856       -0.3962715254
 C         -0.3771051099       -3.7348192194       -1.4295263625
 H          0.1355766436       -2.7926989810       -1.6299387737
 H         -0.3579031752       -4.3139100961       -2.3560833628
 C         -1.8356231753       -3.3899610796       -1.0976534892
 H         -2.3428415654       -4.2274229746       -0.6241782970
 H         -2.3420161082       -3.1616506424       -2.0399579088
 H         -0.8565542149       -4.9327235963        2.6934172597
 H         -1.5401457321       -5.2202002583        1.1079565539
 H         -1.9006298987       -2.9173972446        3.0021255143
 H         -3.0896236895       -3.7418849616        1.9996055817
 O         -2.1491634446       -0.9936305608        1.8021048754
 C         -2.1639664925        0.2488325727        1.1907689955
 O         -2.3130993017        1.2064439690        1.9746770490
 O         -1.7356201001       -0.8392697155       -2.2332505197
 C         -2.0033513783        1.6624094257       -0.8712303220
 C         -0.9758551367        2.5445912115       -0.2059528300
 C         -1.2127569454        3.8667323660        0.1451552688
 C         -0.2458866642        4.5933422926        0.8186758711
 C          0.9603348251        4.0168998151        1.1679659765
 C          1.2165003163        2.6991510857        0.8009476807
 C          0.2654656909        1.9922221070        0.0858419121
 H          0.4629363401        0.9690693097       -0.1938500747
 N          2.4358720713        2.0955603534        1.1301249006
 S          2.6533317843        0.4430218972        1.2222554413
 O          1.4697955423       -0.2638213216        1.6507062621
 O          3.8246237206        0.2944340189        2.0609763422
 C          3.0874843745        0.0077468980       -0.4475722008
 C          2.2681247038       -0.8229893475       -1.1820627666
 C          2.6193066156       -1.1361243360       -2.4857830610
 C          3.7832845072       -0.6146165865       -3.0282929161
 C          4.6014356404        0.2152358896       -2.2757346244
 C          4.2526280413        0.5318996004       -0.9732366004
 H          4.8636026465        1.1649901772       -0.3518884132
 H          5.5069951655        0.6162515665       -2.7014631069
 H          4.0526777816       -0.8588172017       -4.0436491813
 H          1.9779466593       -1.7779196317       -3.0693893934
 H          1.3686576170       -1.2059366999       -0.7229921377
 H          3.0087102140        2.6020329908        1.7875509526
 H          1.6970957406        4.5735167266        1.7266422995
 H         -0.4447069956        5.6175115638        1.0961115602
 H         -2.1601897185        4.3237248645       -0.0887850978
 H         -1.6926582340        1.4743010689       -1.9098936769
 C         -3.3945974309        2.2625074101       -0.8797757994
 C         -3.8171936077        3.1873048966       -1.9812547790
 C         -4.3771622097        1.7993771920       -1.9118979012
 H         -5.4085816688        1.6704282288       -1.6196818342
 H         -4.0320033198        1.0685364803       -2.6283195846
 H         -4.4688389885        4.0132812402       -1.7390518072
 H         -3.0969746092        3.4039808044       -2.7554146002
 H         -3.7697961538        2.4478823303        0.1211306502
