  62
        -98.93522447
 C          1.0014538982        1.7602026405        0.3233860904
 C          1.6452069487        1.3561787912       -0.8715826096
 C          2.7736328795        0.4219426221       -0.7110212096
 C          3.1249270096        0.0169116522        0.5227857303
 C          4.1842724905       -1.0012018069        0.8366451203
 C          3.6511286417       -2.4196114973        0.5512086600
 C          4.3734282024       -3.1500700966       -0.5808140500
 H          5.3476944226       -3.4888527658       -0.2224094500
 H          3.7857269932       -4.0375772170       -0.8254985602
 C          4.6011796819       -2.3362723162       -1.8582702699
 H          5.4621707113       -1.6790951555       -1.7273892997
 H          4.8683394726       -3.0452953758       -2.6448109999
 C          3.4109605012       -1.4951133871       -2.3377473799
 H          3.3760770514       -1.5476371569       -3.4280586499
 H          2.4727983715       -1.9134362779       -1.9713532200
 C          3.4881825200       -0.0024638671       -1.9645802996
 H          4.5362980397        0.3045820638       -1.9086421694
 H          3.0185537496        0.5799115127       -2.7633370396
 H          3.7323938121       -3.0268207774        1.4538799599
 H          2.5880668616       -2.3425593882        0.3135870099
 H          5.0745967804       -0.8001342161        0.2448333104
 H          4.4358182102       -0.8941862369        1.8918075404
 O          2.4922901592        0.4401225315        1.6467176803
 C          1.4277021984        1.3232274006        1.5785576204
 O          0.9529488580        1.6426629301        2.6855150503
 O          1.2957169485        1.7368821211       -2.0201372996
 C         -0.1910872325        2.6924291595        0.3035935904
 C         -1.4378717520        2.0549106186       -0.2693930699
 C         -2.6321570425        2.7706469176       -0.3017303599
 C         -3.7970773820        2.1912787567       -0.7703810501
 C         -3.8008937609        0.8844487068       -1.2286249603
 C         -2.6139219703        0.1701659077       -1.2183256403
 C         -1.4494729608        0.7485020286       -0.7310650201
 H         -0.5393045103        0.1643758994       -0.7157206401
 N         -2.6146100391       -1.1767307022       -1.6649955605
 S         -3.1291951683       -2.2642457428       -0.4984076208
 O         -2.9675908272       -3.5797424826       -1.0736119009
 O         -4.4610722087       -1.8945180740       -0.0958812209
 C         -1.9880654187       -2.0461870921        0.8551218794
 C         -0.8764101680       -2.8613670012        0.9301505694
 C          0.0571770317       -2.6314632105        1.9280660796
 C         -0.1252394593       -1.5813210408        2.8145673997
 C         -1.2444741100       -0.7687061718        2.7234535997
 C         -2.1882124597       -1.0011985924        1.7357237496
 H         -3.0739294501       -0.3940734731        1.6384255795
 H         -1.3653284007        0.0574518680        3.4053416098
 H          0.6125395004       -1.3804652703        3.5753921698
 H          0.9257371422       -3.2655529798        2.0095385896
 H         -0.7702660573       -3.6634710910        0.2167371493
 H         -1.7105981088       -1.4740624714       -2.0063964005
 H         -4.7003199104        0.4063335661       -1.5798604805
 H         -4.7137588425        2.7606006059       -0.7775884901
 H         -2.6445511834        3.7893223875        0.0522174703
 H         -0.4004776729        2.9289821492        1.3573023804
 C          0.1324098765        3.9883263699       -0.4219506894
 C         -0.3512469747        5.3033465094        0.1079568208
 C          1.1007533156        4.9465318706        0.2023783709
 H          1.8074650252        5.4555056613       -0.4354321989
 H          1.4985965957        4.6849632808        1.1726272509
 H         -0.6485206752        6.0639055093       -0.5979026791
 H         -0.9215706548        5.3024075388        1.0249037407
 H          0.1863548167        3.8627218301       -1.4965560294
