  62
        -98.93724757
 C         -1.8649921556       -0.3728068242       -0.6178460118
 C         -2.9477947458       -1.2078720337       -0.2529174157
 C         -4.2784779647       -0.5869928367       -0.2764183259
 C         -4.4033990527        0.7019791397       -0.6404643979
 C         -5.6865760777        1.4789912682       -0.7753426042
 C         -6.4825416347        1.7157335253        0.5226622881
 C         -7.5756924007        0.6745309692        0.7933721632
 H         -8.4566374930        1.1852376007        1.1876527374
 H         -7.8734352652        0.2240624536       -0.1542834235
 C         -7.2141399824       -0.4283755049        1.7928270936
 H         -7.2834692639       -0.0274595798        2.8066559759
 H         -7.9605200118       -1.2203639051        1.7010845398
 C         -5.8216935107       -1.0396450663        1.6367288288
 H         -5.7672169010       -1.9287478457        2.2680453503
 H         -5.0707739312       -0.3435646283        2.0180126395
 C         -5.4415361664       -1.4132384572        0.1907200363
 H         -6.2933060803       -1.2878930159       -0.4760099412
 H         -5.1203558007       -2.4558358892        0.1475703693
 H         -6.9595931689        2.6923466447        0.4259383366
 H         -5.7942020400        1.7756082903        1.3652654453
 H         -5.3970571641        2.4440590034       -1.1963080923
 H         -6.3251938067        0.9754269884       -1.5047607125
 O         -3.3341895529        1.4710327379       -0.9852790799
 C         -2.0425813018        0.9643471300       -0.9720781826
 O         -1.1673453406        1.7894209638       -1.2952804504
 O         -2.8092731787       -2.4175399681        0.0719098110
 C         -0.4618936027       -0.9555318818       -0.6147529272
 C          0.3886945645       -0.2014676978        0.3760406210
 C          0.0162853390       -0.2264556338        1.7189087138
 C          0.7336411711        0.4781232636        2.6646765739
 C          1.8447617511        1.2161010289        2.2935374233
 C          2.2262339089        1.2473935273        0.9581914090
 C          1.5030491166        0.5348161563        0.0091698848
 H          1.8093179251        0.5965774903       -1.0208360561
 N          3.3343314518        2.0096140208        0.5567107700
 S          4.4621562527        1.4069833226       -0.5170190383
 O          5.5781204637        2.3214224625       -0.4163483870
 O          3.8838792365        1.2460642613       -1.8258572011
 C          4.9183153262       -0.1774188754        0.1628241495
 C          5.8876560500       -0.2142580913        1.1466234005
 C          6.2080720534       -1.4300063630        1.7280204106
 C          5.5500083943       -2.5820195418        1.3241662944
 C          4.5791041459       -2.5278723764        0.3362782024
 C          4.2567957585       -1.3151109860       -0.2526616409
 H          3.5110243284       -1.2363229984       -1.0259751510
 H          4.0696601955       -3.4245331693        0.0211408322
 H          5.7965868468       -3.5283791389        1.7791079798
 H          6.9662249372       -1.4758875747        2.4931298303
 H          6.3816147971        0.7031645246        1.4229820179
 H          3.7881295091        2.5117077104        1.3055840476
 H          2.4030897624        1.7751815123        3.0290293843
 H          0.4293494224        0.4532042877        3.7001497320
 H         -0.8549301938       -0.7997068928        2.0054228410
 H         -0.5798828616       -1.9871769471       -0.2524402737
 C          0.1040450645       -0.9963048391       -2.0174408462
 C          1.1438368097       -2.0141813851       -2.3756184115
 C         -0.2504531764       -2.1470798736       -2.9090303661
 H         -0.4258606425       -1.9520429162       -3.9563701615
 H         -0.8848471343       -2.9176069413       -2.4958260795
 H          1.9305985309       -1.7278923441       -3.0581956897
 H          1.4511540608       -2.7036286058       -1.6035773007
 H          0.1690359369       -0.0164972532       -2.4775848170
