  62
        -98.93888150
 C          2.1259472512        1.1421822117       -0.5726201514
 C          0.9627183974        1.2871042917       -1.3722677980
 C          0.0589563121        2.3927986721       -1.0441013236
 C          0.3521903583        3.1900830008       -0.0019513658
 C         -0.4435771573        4.3757442403        0.4745261612
 C         -1.8417532863        4.0521272696        1.0362706020
 C         -2.9767007763        4.2009796544        0.0149853022
 H         -3.8332938284        4.6658514393        0.5073349057
 H         -2.6544880283        4.8873713412       -0.7693279169
 C         -3.4752647181        2.8992175270       -0.6194213523
 H         -4.1300760131        2.3856282497        0.0887369297
 H         -4.0740545891        3.1605374355       -1.4949345222
 C         -2.3930733783        1.9026893922       -1.0356572967
 H         -2.8661901450        1.1199449146       -1.6330547308
 H         -1.9895918616        1.4106210726       -0.1471364671
 C         -1.2177884250        2.5129487061       -1.8250324142
 H         -1.0687204450        1.9596042343       -2.7545421192
 H         -1.4186724353        3.5549763035       -2.0710448858
 H         -1.8338930217        3.0468806239        1.4603175514
 H         -2.0255074087        4.7473932302        1.8573252416
 H          0.1597828143        4.8374005332        1.2588992411
 H         -0.5349583914        5.0930811761       -0.3444941419
 O          1.4714802219        3.0200268563        0.7470851447
 C          2.3649221720        1.9767315013        0.5187155223
 O          3.3008555916        1.9467578997        1.3392116839
 O          0.6986117159        0.5097318746       -2.3303863728
 C          2.9901352245       -0.0644638737       -0.9077407473
 C          2.2253775465       -1.3198322499       -0.5631216098
 C          2.2714362611       -2.4497808321       -1.3714543427
 C          1.5333600670       -3.5757152552       -1.0510463658
 C          0.6995083073       -3.5795437251        0.0532507000
 C          0.6355032927       -2.4486351646        0.8579363960
 C          1.4249751656       -1.3465317670        0.5693950961
 H          1.3680277611       -0.4791150722        1.2105723684
 N         -0.2587135359       -2.3594664831        1.9472820427
 S         -1.4874526475       -1.2289684389        1.7583421917
 O         -0.9282816101        0.0890441276        1.6076331085
 O         -2.3600608396       -1.4272968779        2.8957076877
 C         -2.3244596433       -1.7493680509        0.2705751691
 C         -1.7640656450       -1.4754223625       -0.9612908644
 C         -2.3893861648       -1.9610520432       -2.0998667785
 C         -3.5526432239       -2.7065105847       -1.9909598514
 C         -4.1030480006       -2.9716128289       -0.7457228089
 C         -3.4813214254       -2.4949814977        0.3965570700
 H         -3.8717759940       -2.6743958339        1.3853476166
 H         -5.0096436503       -3.5489045215       -0.6617067090
 H         -4.0323796040       -3.0808447414       -2.8815178288
 H         -1.9527128050       -1.7468320117       -3.0622641049
 H         -0.8641731117       -0.8852640274       -1.0325194852
 H         -0.6705635334       -3.2461342303        2.2068563540
 H          0.0925691226       -4.4420140248        0.2842087390
 H          1.5835136749       -4.4484470488       -1.6836570088
 H          2.8730424580       -2.4341838587       -2.2681450828
 H          3.1105683528       -0.0533156779       -2.0042918672
 C          4.3807740357       -0.0435054866       -0.2971879772
 C          4.7257063921       -0.7983625480        0.9478595687
 C          5.2700235034       -1.2492961327       -0.3726544786
 H          6.3191431771       -1.0975612132       -0.5757323201
 H          4.8620002024       -2.1542495998       -0.7954381779
 H          5.3849693966       -0.3210912830        1.6562263963
 H          3.9495198715       -1.3890372339        1.4108348191
 H          4.8598834281        0.9215090189       -0.4177992976
