  62
        -98.93225691
 C         -2.5952594874       -1.0107795531       -0.3484374993
 C         -3.1012269660       -0.1874070772        0.6879683349
 C         -3.3573866640        1.2258414084        0.3654717298
 C         -3.0873316439        1.6747910072       -0.8741252798
 C         -3.2564808940        3.0421440010       -1.5027337647
 C         -3.5392915878        4.2666138446       -0.6371371336
 C         -2.3784659231        4.6942375259        0.2613188445
 H         -1.5830063616        5.0995129326       -0.3691430243
 H         -2.7281711679        5.4966847898        0.9144364554
 C         -1.7604670180        3.5921464925        1.1190134944
 H         -1.3205305494        2.8238058396        0.4781082921
 H         -0.9354647711        4.0318152922        1.6870773226
 C         -2.7077013084        2.9297591611        2.1176455386
 H         -3.1549917670        3.6912854308        2.7597726232
 H         -2.1058905106        2.2690311150        2.7483954012
 C         -3.8342997500        2.0834457619        1.5016897092
 H         -4.1984208327        1.3965358288        2.2713184418
 H         -4.6714479471        2.7045378437        1.1929690024
 H         -3.7444306369        5.0925416490       -1.3235620409
 H         -4.4406013879        4.1125825385       -0.0513420760
 H         -2.3430699471        3.2160894071       -2.0809008116
 H         -4.0678334966        2.9361924895       -2.2313621602
 O         -2.6102237504        0.8438765963       -1.8446928916
 C         -2.3185219037       -0.4928919688       -1.6121017342
 O         -1.8355382107       -1.0736122630       -2.6029960210
 H         -0.0295676158       -1.4446763425       -1.0701487815
 C          0.1650928670       -1.8999533473       -0.1087328462
 C         -0.8762488079       -2.5010735564        0.5858365084
 C         -0.6026972798       -3.0754024593        1.8206483629
 C          0.6761421426       -3.0343525683        2.3508491847
 C          1.7042004160       -2.4126246385        1.6649312981
 C          1.4408777512       -1.8456388237        0.4263760776
 N          2.4811594241       -1.1587115665       -0.2581377209
 S          2.6446036136        0.4400561679        0.2843916217
 O          2.4974144161        0.4536399107        1.7174501666
 O          1.7581084195        1.3053519623       -0.4672218425
 C          4.3387222820        0.7786293122       -0.1525437251
 C          4.6230708458        1.5060848290       -1.2912077884
 C          5.9487032973        1.7264026382       -1.6320216747
 C          6.9605932682        1.2139913188       -0.8347313934
 C          6.6586395933        0.4837395511        0.3053321846
 C          5.3357975318        0.2613206396        0.6515847756
 H          5.0523926352       -0.2918821061        1.5314452246
 H          7.4482853462        0.0881234434        0.9234783777
 H          7.9909703373        1.3864624764       -1.1027547964
 H          6.1855514577        2.2953540585       -2.5167038579
 H          3.8038877740        1.8906471604       -1.8775718487
 H          2.2832063962       -1.1060324146       -1.2502925302
 H          2.6956814793       -2.3433056744        2.0804826828
 H          0.8694191661       -3.4774273501        3.3158539009
 H         -1.4070469505       -3.5307817409        2.3797178040
 C         -2.2756104484       -2.4483558005        0.0259797816
 H         -2.9684863442       -2.6895510536        0.8476445104
 C         -2.5222581169       -3.4486392145       -1.0925054895
 C         -1.4255091190       -4.1866123885       -1.7944141930
 C         -2.3195033954       -4.9132077599       -0.8378771712
 H         -3.0428020072       -5.6114447333       -1.2302887091
 H         -1.9012433224       -5.1959498098        0.1163847964
 H         -1.5400802625       -4.3600639490       -2.8533965730
 H         -0.4071310216       -3.9948428352       -1.4944866281
 H         -3.3774714126       -3.1726830073       -1.7003096531
 O         -3.3393055369       -0.6245441717        1.8462193776
