  62
        -98.93764046
 C         -2.2742268045        0.6502128232        0.2031061105
 C         -3.5670336502        1.1458578576        0.5128008733
 C         -4.6823575201        0.5554642917       -0.2343094352
 C         -4.4331978435       -0.3595076441       -1.1881389312
 C         -5.4611387139       -1.0414654213       -2.0497804781
 C         -6.1191384090       -2.2611631521       -1.3897373093
 C         -7.1061780320       -1.9409275648       -0.2663171453
 H         -7.8329973340       -1.2093289969       -0.6204398465
 H         -7.6505898240       -2.8614221033       -0.0466302256
 C         -6.4517812477       -1.4348522852        1.0269049478
 H         -5.3860575540       -1.6761466852        1.0139346647
 H         -6.8856012102       -1.9556884749        1.8834755299
 C         -6.6176344424        0.0643674676        1.2760789962
 H         -6.0841761499        0.3205046584        2.1951905654
 H         -7.6744653982        0.2962685381        1.4246314098
 C         -6.0752978168        0.9538937728        0.1497687434
 H         -6.7361443829        0.9112919758       -0.7155481612
 H         -6.0372801803        1.9835710458        0.5134447717
 H         -6.6554277307       -2.8039119499       -2.1715762746
 H         -5.3336439925       -2.9181404342       -1.0087425947
 H         -6.2297640340       -0.3242765082       -2.3392738316
 H         -4.9397498816       -1.3757961657       -2.9492468531
 O         -3.1731426074       -0.7610938070       -1.5026957608
 C         -2.0643232812       -0.2834438932       -0.8122892977
 O         -0.9840223264       -0.7580107866       -1.2120518820
 O         -3.7761888981        2.0458967961        1.3685940307
 C         -1.1050095167        1.2137272576        0.9888493287
 C          0.0353575199        1.5697528485        0.0687216308
 C         -0.1955105662        2.4868236155       -0.9537420135
 C          0.8131648905        2.8348335566       -1.8297718025
 C          2.0759234236        2.2848438410       -1.6984414598
 C          2.3227654904        1.3820476465       -0.6708020193
 C          1.3047758991        1.0309854484        0.2050313633
 H          1.5131404652        0.3077949514        0.9741378686
 N          3.6198732227        0.8701742387       -0.4901103206
 S          3.9117600817       -0.6417924114        0.1915996937
 O          3.3436307550       -1.6965810097       -0.6182424207
 O          3.5285035359       -0.6178097593        1.5805154306
 C          5.6916228147       -0.6644269175        0.0676344107
 C          6.4211867711        0.0758342698        0.9788123499
 C          7.8028648928        0.0923975697        0.8764050367
 C          8.4295917511       -0.6275708591       -0.1300993143
 C          7.6849021099       -1.3681697171       -1.0353901876
 C          6.3020377019       -1.3875980831       -0.9390808597
 H          5.6827974643       -1.9543848061       -1.6158493844
 H          8.1748300682       -1.9294678325       -1.8146674630
 H          9.5052652187       -0.6134647572       -0.2078597114
 H          8.3853004856        0.6649072282        1.5801255340
 H          5.8910172612        0.6122449030        1.7482067778
 H          4.2017437980        1.0012202287       -1.3066200930
 H          2.8638547121        2.5520838841       -2.3862502255
 H          0.6157897398        3.5371606236       -2.6258881540
 H         -1.1852275872        2.9106248087       -1.0608219667
 H         -1.4946026403        2.1522497264        1.4198173796
 C         -0.6776880125        0.3448112943        2.1625182951
 C         -1.6354050264       -0.5939206342        2.8313015019
 C         -0.4906032776       -1.1360387508        2.0316521148
 H          0.3388109718       -1.5942285179        2.5517563047
 H         -0.6926854360       -1.5814809037        1.0696139058
 H         -1.6008070994       -0.6815406258        3.9067715295
 H         -2.6299599922       -0.6758153303        2.4170213997
 H          0.0198347521        0.8603472186        2.8163684247
