  62
        -98.94079065
 C         -2.5717341706       -1.3565884203        0.2599344688
 C         -2.7905962914       -0.5093250791       -0.8536255164
 C         -3.6171953750        0.6824175647       -0.6020850238
 C         -4.1033191443        0.9088820729        0.6308250493
 C         -4.9084695741        2.1098070350        1.0325282952
 C         -4.0062138322        3.2359447191        1.5558871233
 C         -2.8190941393        3.5530427353        0.6458520374
 H         -2.2755448143        4.3859094820        1.0977050027
 H         -2.1350495264        2.7002381652        0.6351502900
 C         -3.2020067321        3.9160349115       -0.7958088480
 H         -2.6176563143        4.7861388127       -1.1026436892
 H         -4.2544521340        4.1988403953       -0.8398029356
 C         -2.9293115684        2.8145255476       -1.8218149583
 H         -1.8991663708        2.4634792353       -1.7116392597
 H         -3.0197231185        3.2507154102       -2.8203856525
 C         -3.8672449444        1.6016782031       -1.7646476113
 H         -4.9051237140        1.9400649112       -1.7732390880
 H         -3.6920541616        1.0039223677       -2.6639834862
 H         -3.6164791622        2.9427328673        2.5334048601
 H         -4.6143275421        4.1328259873        1.6868530731
 H         -5.5969979184        1.8115063121        1.8248732625
 H         -5.4830306006        2.4584891372        0.1766509218
 O         -3.8731655661        0.0750122578        1.6763767804
 C         -3.0980135252       -1.0605054469        1.5214204597
 O         -2.9586566116       -1.7289678542        2.5648914469
 O         -2.3297130431       -0.7150415823       -2.0075335025
 C         -1.7360926840       -2.6271394086        0.1900585775
 C         -0.2795108709       -2.2863541268        0.3724909274
 C          0.4662720264       -2.8297334903        1.4109390984
 C          1.7897220436       -2.4653237988        1.5918932383
 C          2.3932910123       -1.5531154441        0.7448463716
 C          1.6539251891       -1.0009159410       -0.2931532543
 C          0.3316886844       -1.3727790408       -0.4765396587
 H         -0.2410521914       -0.9402945313       -1.2842610371
 N          2.2565481632       -0.0582544493       -1.1528911861
 S          2.7981914594        1.3537764369       -0.4134912840
 O          2.0382688039        1.6465512011        0.7811434984
 O          2.7850409568        2.3632187930       -1.4496157842
 C          4.4858028862        0.9757099635        0.0087622660
 C          5.3470327407        0.6274162252       -1.0135333562
 C          6.6634988846        0.3246286030       -0.7049742656
 C          7.0942677386        0.3768898877        0.6125696223
 C          6.2180468070        0.7317903376        1.6268200635
 C          4.8992654663        1.0350867428        1.3249950593
 H          4.1798824217        1.3093998534        2.0801196073
 H          6.5546747121        0.7721017981        2.6503073327
 H          8.1191408498        0.1396761952        0.8505811162
 H          7.3479006138        0.0483345995       -1.4907654216
 H          4.9713290754        0.6028856543       -2.0227905679
 H          1.6684046248        0.1780933475       -1.9407511816
 H          3.4217716891       -1.2619428729        0.8838161287
 H          2.3566165758       -2.8939955487        2.4040999872
 H         -0.0044999686       -3.5255674017        2.0900008120
 H         -2.0498727137       -3.2216462332        1.0619143679
 C         -2.0213999587       -3.4565236025       -1.0558415612
 C         -0.9971993048       -3.7679208835       -2.1024500996
 C         -1.4575517071       -4.8424947740       -1.1673338794
 H         -2.0893592786       -5.6306188515       -1.5476773777
 H         -0.7711269213       -5.1583087428       -0.3960134156
 H         -1.3278737371       -3.7938741051       -3.1297121042
 H          0.0012135058       -3.3794465972       -1.9774090937
 H         -3.0374052329       -3.3176139562       -1.4102909198
