  62
        -98.94508608
 C         -1.3465133983       -1.4599165242        0.4064633455
 C         -1.8463093593       -0.4477039699        1.2638746494
 C         -2.8255729879        0.4743780736        0.6800650320
 C         -3.1636323632        0.3516712324       -0.6158706045
 C         -4.1417737286        1.2176446163       -1.3619041651
 C         -3.5342079486        2.5303482262       -1.8757485139
 C         -3.2822526993        3.5937698595       -0.8059393831
 H         -3.0879405659        4.5322107933       -1.3292126276
 H         -4.1853792500        3.7322641521       -0.2098685410
 C         -2.0923551826        3.2933169500        0.1161962038
 H         -1.4456283409        2.5507041316       -0.3595072762
 H         -1.4895954321        4.1975922839        0.2356232646
 C         -2.4806026130        2.8205712895        1.5177190488
 H         -1.5649205110        2.5999422908        2.0718946403
 H         -3.0013718983        3.6264800986        2.0403301768
 C         -3.3684990941        1.5700506500        1.5479642767
 H         -4.3831945612        1.8243527039        1.2418821128
 H         -3.3951632600        1.1961505124        2.5747543658
 H         -2.5943493794        2.3050374973       -2.3868167547
 H         -4.2255560004        2.9435561257       -2.6142569995
 H         -4.4806409573        0.6349832523       -2.2213230564
 H         -5.0019509414        1.4355231141       -0.7276785627
 O         -2.6464124663       -0.6164476218       -1.4153335526
 C         -1.7071659665       -1.5241198186       -0.9410943371
 O         -1.2953849858       -2.3170758123       -1.8086694027
 O         -1.4827156464       -0.3155170022        2.4634893664
 C         -0.2795721811       -2.3849525799        0.9635488080
 C          0.9337988843       -2.3836674857        0.0643777017
 C          1.6817362178       -3.5125687468       -0.2425742785
 C          2.7926515112       -3.4098076038       -1.0635276636
 C          3.1827722842       -2.1933396541       -1.5921427957
 C          2.4363969420       -1.0572271938       -1.2948929943
 C          1.3386703529       -1.1632361782       -0.4595103543
 H          0.7499818785       -0.2844864949       -0.2529957771
 N          2.7691400696        0.1882209170       -1.8335627620
 S          2.1540812066        1.6259656799       -1.2738491787
 O          0.7304010990        1.6998863056       -1.4915163994
 O          2.9505109146        2.6277083125       -1.9506382032
 C          2.5304785223        1.6529380202        0.4695568581
 C          3.8606898165        1.6355438654        0.8418950163
 C          4.1805617924        1.6228738901        2.1894578893
 C          3.1699106665        1.6216707640        3.1394195148
 C          1.8397789686        1.6464637931        2.7509070764
 C          1.5159057414        1.6653682772        1.4037820271
 H          0.4891741600        1.6789326468        1.0720159858
 H          1.0469357341        1.6350597084        3.4822189973
 H          3.4179412201        1.6026178105        4.1888655609
 H          5.2141277537        1.6087034658        2.4956081723
 H          4.6183869224        1.6439294700        0.0756479558
 H          3.6491957941        0.2632555862       -2.3168683129
 H          4.0409680416       -2.1219445925       -2.2421800818
 H          3.3623365360       -4.2957225866       -1.3000806428
 H          1.3881075398       -4.4758216997        0.1407417446
 H          0.0172182655       -1.9037324229        1.9121841230
 C         -0.7663322898       -3.7806474950        1.3275689111
 C         -2.2265612762       -4.0887752484        1.4660337117
 C         -1.4419413431       -4.6742554810        0.3324288431
 H         -1.2187948452       -5.7309753593        0.3563753131
 H         -1.6009019904       -4.2792509854       -0.6584198051
 H         -2.5393809630       -4.7383909568        2.2699649403
 H         -2.9299210072       -3.2992657430        1.2425704676
 H         -0.1125655515       -4.2656834073        2.0457785573
