  62
        -98.94593919
 C         -2.1145745089       -1.4915112647        0.0042703315
 C         -1.8355961141       -0.3716173248       -0.8158476178
 C         -2.8992535990        0.6408636978       -0.8926326532
 C         -4.0530544045        0.4395857970       -0.2305386974
 C         -5.1958823170        1.4112841626       -0.1838114466
 C         -5.0685064468        2.3613453472        1.0154241977
 C         -3.6881878590        3.0044335123        1.1511242461
 H         -3.7270475458        3.6765078541        2.0111263745
 H         -2.9543278226        2.2289631843        1.3827775036
 C         -3.2263174736        3.7844952502       -0.0875529197
 H         -2.8014511856        4.7361535527        0.2381255943
 H         -4.0836872477        4.0135898227       -0.7215477233
 C         -2.1536065607        3.0770571842       -0.9178168368
 H         -1.7443935403        3.8005827512       -1.6279352079
 H         -1.3394461001        2.7545704835       -0.2641215532
 C         -2.6301827567        1.8627978733       -1.7248667788
 H         -3.5095872561        2.1315919155       -2.3135672306
 H         -1.8290810925        1.5820116566       -2.4147508306
 H         -5.8277683634        3.1399045274        0.9206140575
 H         -5.2742867005        1.7964300601        1.9276835692
 H         -6.1246263553        0.8457515992       -0.0905732621
 H         -5.2212598867        1.9805878870       -1.1109009251
 O         -4.2944857797       -0.6652388357        0.5212006874
 C         -3.3279849434       -1.6452045091        0.6747529907
 O         -3.6628133842       -2.5886023010        1.4197122918
 O         -0.7608330686       -0.2223841871       -1.4520286573
 C         -1.0675051873       -2.5772277090        0.1851032340
 C          0.1900581191       -1.9542861614        0.7394452042
 C          0.1194142506       -1.2884651514        1.9610394773
 C          1.2324511401       -0.6697605437        2.4961250902
 C          2.4403588981       -0.6905522328        1.8197182555
 C          2.5184324955       -1.3442084320        0.5980477036
 C          1.4017138546       -1.9814016162        0.0701269754
 H          1.4829274028       -2.4840894288       -0.8804665487
 N          3.7324671493       -1.3514485019       -0.1068418035
 S          4.6323814553        0.0572679700       -0.1506393960
 O          5.3856043510       -0.0177366565       -1.3834575305
 O          5.4198033057        0.1632858081        1.0536153946
 C          3.4591999398        1.4011348804       -0.2172868968
 C          3.5752752953        2.4435601357        0.6801469362
 C          2.6662965766        3.4872623978        0.6177600975
 C          1.6585541052        3.4684605427       -0.3340588266
 C          1.5561067954        2.4147897433       -1.2289632719
 C          2.4646631228        1.3711399389       -1.1741020698
 H          2.3916522379        0.5411553964       -1.8576537069
 H          0.7642455470        2.3853568566       -1.9594926440
 H          0.9468226278        4.2779266803       -0.3790096109
 H          2.7433237843        4.3079584396        1.3128018181
 H          4.3691800437        2.4136179690        1.4089483695
 H          3.6770638890       -1.7802318522       -1.0189263707
 H          3.3194056003       -0.2138196824        2.2221920284
 H          1.1613863962       -0.1616033701        3.4458567560
 H         -0.8279708214       -1.2605347940        2.4827145161
 H         -1.4701051805       -3.2675923618        0.9395846468
 C         -0.8664045723       -3.3359909544       -1.1095993286
 C         -0.3126725483       -4.7282348100       -1.0847673973
 C         -1.7574528030       -4.5013840922       -1.4120299232
 H         -2.0860400736       -4.6488924438       -2.4299585325
 H         -2.5001654930       -4.7637260897       -0.6726687797
 H          0.3492645264       -5.0370045243       -1.8799539742
 H         -0.0713615635       -5.1524369983       -0.1218683122
 H         -0.5963747747       -2.6911436195       -1.9379492007
