  62
        -98.94379632
 C         -1.2911757163       -1.4241342794        0.6047248999
 C         -2.0919268884       -1.0274236491       -0.4950415905
 C         -3.1370899820       -0.0345758776       -0.2029761609
 C         -3.2631783214        0.4517524586        1.0439834739
 C         -4.2475893172        1.5044711420        1.4616250945
 C         -3.6381154466        2.9093733923        1.3577038132
 C         -2.9495803243        3.1946696521        0.0222523526
 H         -2.0532331656        2.5741744642       -0.0639618041
 H         -2.6043968624        4.2310454083        0.0526392082
 C         -3.8409374430        2.9904802549       -1.2109080225
 H         -3.6853356319        3.8292408614       -1.8928250016
 H         -4.8907510809        3.0034791164       -0.9143403961
 C         -3.5524763206        1.7144393030       -2.0040666333
 H         -2.4796242227        1.6460780427       -2.2047345588
 H         -4.0626597169        1.7911937990       -2.9681671998
 C         -4.0050937443        0.4038273324       -1.3480459617
 H         -3.9322852810       -0.3863778331       -2.1010694779
 H         -5.0479517849        0.4880716712       -1.0356210250
 H         -2.8957948406        3.0266515790        2.1508607269
 H         -4.4311356714        3.6416437495        1.5226001061
 H         -4.5309910572        1.3185006075        2.4992589002
 H         -5.1343850748        1.4346258181        0.8346651497
 O         -2.4633592548        0.0650916914        2.0702772712
 C         -1.4370533511       -0.8431719634        1.8661431414
 O         -0.7292824441       -1.0484283638        2.8736777834
 O         -1.9501649571       -1.4676029549       -1.6648802667
 C         -0.1189006817       -2.3747088348        0.4297876969
 C          0.7216722907       -1.9243953847       -0.7415368456
 C          1.2321225303       -2.7693625118       -1.7174938479
 C          2.0135917475       -2.2586343710       -2.7406269875
 C          2.3166336742       -0.9108128319       -2.8059120474
 C          1.8072113043       -0.0566950936       -1.8338613419
 C          1.0232126688       -0.5711418769       -0.8166722248
 H          0.6052526863        0.1026745401       -0.0849554827
 N          2.0702104875        1.3206634145       -1.8569198588
 S          2.1637164515        2.1731114242       -0.4243629447
 O          0.8501659691        2.3749863366        0.1342654021
 O          2.8897077664        3.3756518484       -0.7743493074
 C          3.1674290826        1.1593674645        0.6481072467
 C          2.6290990302        0.5631145683        1.7696050112
 C          3.4357811832       -0.2532284922        2.5474491868
 C          4.7602430726       -0.4568637296        2.1942657065
 C          5.2905103348        0.1578331007        1.0697091975
 C          4.4881514605        0.9711841871        0.2873928114
 H          4.8667868943        1.4739015702       -0.5876019548
 H          6.3226241520        0.0024505534        0.8002734115
 H          5.3814817902       -1.0961981375        2.8013153299
 H          3.0144503917       -0.7283749208        3.4192879618
 H          1.5935073912        0.7316543777        2.0232282852
 H          2.7499991448        1.6241642122       -2.5375029781
 H          2.9246034542       -0.5180348041       -3.6062335013
 H          2.3960857312       -2.9237604138       -3.4998839262
 H          1.0022706598       -3.8217823341       -1.6931189677
 H          0.4919735752       -2.2309727543        1.3376285802
 C         -0.4871777603       -3.8505525252        0.3911074637
 C         -1.7979787811       -4.3388857145        0.9301863450
 C         -1.5257397270       -4.3945877079       -0.5415368122
 H         -1.3530241352       -5.3610109196       -0.9924441921
 H         -2.0295804462       -3.6918589338       -1.1853294753
 H         -1.8097138209       -5.2618654455        1.4906495157
 H         -2.4973917088       -3.5988279381        1.2923692938
 H          0.3710574231       -4.4865028771        0.5849482593
