  62
        -98.94035928
 C         -2.4451534596       -1.0249809402        0.0018477679
 C         -2.5254959098        0.3649313694        0.2581998100
 C         -3.8611480999        0.8697688987        0.6027432507
 C         -4.8991812898        0.0174769584        0.6857941994
 C         -6.3129714698        0.3755890976        1.0564422499
 C         -7.1552775099        0.8914323392       -0.1181845394
 C         -6.8057536601        2.3002910000       -0.5988072872
 H         -7.6051978901        2.6168861509       -1.2715999268
 H         -6.8053353203        2.9834974887        0.2509988538
 C         -5.4668679201        2.4011027813       -1.3430157570
 H         -5.1480658399        1.4047155019       -1.6578099585
 H         -5.5979158502        2.9957536527       -2.2499133961
 C         -4.3397155602        3.0482077103       -0.5378452860
 H         -4.5891360504        4.0912626800       -0.3304482244
 H         -3.4316465402        3.0342660014       -1.1465059560
 C         -4.0278406202        2.3473924084        0.7910836029
 H         -3.0823559902        2.7408424879        1.1728290636
 H         -4.8128579002        2.5535628171        1.5184040132
 H         -8.1990965099        0.8890182686        0.2038712006
 H         -7.0620096998        0.1891385505       -0.9496544304
 H         -6.3053547500        1.1185715164        1.8543003410
 H         -6.7747414797       -0.5385252931        1.4356367585
 O         -4.7726435595       -1.3169237113        0.4560557074
 C         -3.5544765394       -1.8655771405        0.0902095766
 O         -3.5852048792       -3.0963334102       -0.1142324353
 O         -1.5369106499        1.1434426297        0.2090583412
 C         -1.1195274395       -1.6461625094       -0.3947109830
 C         -0.0651981495       -1.3781940608        0.6522893774
 C         -0.3909976396       -1.5119080229        1.9993669772
 C          0.5523922304       -1.2751373042        2.9799272976
 C          1.8420462803       -0.9074732035        2.6396030582
 C          2.1859123003       -0.7957076614        1.2976036284
 C          1.2348215604       -1.0343177000        0.3148538380
 H          1.5245793704       -0.9334682384       -0.7171180818
 N          3.5080129203       -0.4881555306        0.9326502789
 S          3.8364699502        0.3859248616       -0.4718389998
 O          3.1259408100        1.6451972614       -0.4679623779
 O          3.6273235704       -0.4656117367       -1.6151729211
 C          5.5843668201        0.6612766315       -0.2462909893
 C          6.0271284399        1.8711704508        0.2534789925
 C          7.3865598899        2.0587773008        0.4493776629
 C          8.2749439401        1.0379815914        0.1465862013
 C          7.8157177003       -0.1707467479       -0.3555705405
 C          6.4582221803       -0.3640708479       -0.5552739208
 H          6.0559792005       -1.2816291173       -0.9516825822
 H          8.5096966104       -0.9609772675       -0.5925867717
 H          9.3321344700        1.1864743713        0.3002520816
 H          7.7467454097        2.9985519302        0.8359560043
 H          5.3006856798        2.6390627504        0.4665844937
 H          4.0496539602       -0.1316973317        1.7085646094
 H          2.5766246503       -0.7144991445        3.4065763485
 H          0.2801143704       -1.3710869158        4.0204364475
 H         -1.4007466095       -1.7934408734        2.2671677868
 H         -1.2912715293       -2.7326846593       -0.4342041347
 C         -0.7188755495       -1.1681035472       -1.7756986123
 C          0.0625367507       -2.0601687257       -2.6909383836
 C         -1.3796891794       -1.7714918955       -2.9772000532
 H         -1.6245619694       -1.1282731643       -3.8091608122
 H         -2.1027267992       -2.5549949859       -2.8009938344
 H          0.8181043806       -1.6144115646       -3.3209031629
 H          0.3189674408       -3.0444223062       -2.3286718551
 H         -0.5091557297       -0.1037190871       -1.8018378807
