  62
        -98.93534146
 C         -2.1303998335       -0.8690904238       -0.3488554432
 C         -3.0897191418       -0.7080349412        0.6837077923
 C         -3.6787004533        0.6306026628        0.8503073756
 C         -3.2623652146        1.6263201377        0.0493721225
 C         -3.7528980706        3.0473639578        0.0159392452
 C         -4.8747030763        3.2126503187       -1.0235052490
 C         -6.2813949726        2.9159923984       -0.5053762298
 H         -6.5868601482        3.7114035191        0.1775409100
 H         -6.9560860705        2.9437582746       -1.3640099507
 C         -6.4460855153        1.5704958144        0.2059635373
 H         -5.9156595911        0.7941586359       -0.3483488939
 H         -7.5064184199        1.3113633326        0.1911319524
 C         -5.9610444368        1.5943665049        1.6632011618
 H         -6.7465959952        1.2027580048        2.3127214199
 H         -5.7951505647        2.6274998268        1.9677222999
 C         -4.7005083331        0.7645041819        1.9463869213
 H         -4.2032488531        1.1613722930        2.8381128593
 H         -4.9873446999       -0.2647767035        2.1840435591
 H         -4.6467167070        2.5574608868       -1.8681363713
 H         -4.8599889601        4.2397774339       -1.3935276794
 H         -2.9019715719        3.6610620865       -0.2876220470
 H         -4.0782737371        3.3656855954        1.0018806311
 O         -2.3269051542        1.4364823876       -0.9189493054
 C         -1.7375185234        0.2052810597       -1.1464311267
 O         -0.9045249401        0.2226963659       -2.0761657168
 O         -3.4511116673       -1.6558519029        1.4323079014
 C         -1.5290400024       -2.2567279589       -0.5085770559
 C         -0.1831655782       -2.3191559215        0.1738594838
 C          0.0063931155       -3.0920583833        1.3132397468
 C          1.2309311913       -3.1090842421        1.9587040925
 C          2.2888192739       -2.3527420540        1.4864567055
 C          2.1049572837       -1.5711899245        0.3538224489
 C          0.8828858513       -1.5679403230       -0.3006488717
 H          0.7444512520       -0.9445331214       -1.1718183663
 N          3.1730381464       -0.7722933258       -0.1280017748
 S          3.5583363592        0.5397752433        0.8699467084
 O          3.9107510163        0.0353994998        2.1722850538
 O          2.4976617727        1.5263995957        0.8345770623
 C          5.0087643220        1.1666561491        0.0468693562
 C          4.8674024792        2.1511726033       -0.9118650826
 C          5.9955728607        2.6080422789       -1.5749806900
 C          7.2382152069        2.0724996352       -1.2716322989
 C          7.3637826665        1.0843327433       -0.3066172924
 C          6.2397558101        0.6235365470        0.3600169121
 H          6.2886502676       -0.1366413998        1.1217292293
 H          8.3320755912        0.6724305199       -0.0723891290
 H          8.1140389145        2.4298979153       -1.7897648803
 H          5.9001428205        3.3776886421       -2.3240448276
 H          3.8830152638        2.5458252287       -1.1091392384
 H          2.9387608142       -0.3909105419       -1.0374481585
 H          3.2388726392       -2.3373515310        1.9940314392
 H          1.3618465238       -3.7140652251        2.8431431261
 H         -0.8218708924       -3.6651246452        1.7044070531
 H         -2.2087412818       -2.9273235742        0.0340157573
 C         -1.4448040637       -2.7209235447       -1.9489589483
 C         -1.3185438056       -4.1871682965       -2.2303646058
 C         -2.5963151853       -3.4705977756       -2.5458247397
 H         -2.8471502587       -3.2889497638       -3.5800788477
 H         -3.4537890451       -3.6542936066       -1.9149286888
 H         -0.6891797717       -4.5013102306       -3.0485889073
 H         -1.3092921435       -4.8581597286       -1.3848578256
 H         -0.9122671012       -2.0351501997       -2.5945779120
