  62
        -98.94094260
 C          2.3035361680        0.8547308499       -0.1592690672
 C          3.5930276895        1.2194935111        0.2968641481
 C          4.7109771473        0.4618981392       -0.2754760963
 C          4.4692394188       -0.4932199547       -1.1919902390
 C          5.5059654305       -1.3336246254       -1.8873580194
 C          5.9524215490       -2.5644454662       -1.0862198821
 C          6.8395698837       -2.2665206126        0.1232298267
 H          7.2529563024       -3.2194268905        0.4594412977
 H          7.6761065519       -1.6399335138       -0.1873321140
 C          6.1064226919       -1.6045350953        1.2982774741
 H          5.0287610321       -1.7360265879        1.1750114998
 H          6.3848401649       -2.1035689726        2.2292361308
 C          6.4067469262       -0.1159416371        1.4744424368
 H          5.8081062710        0.2583987737        2.3087711786
 H          7.4602442840        0.0177957403        1.7294577874
 C          6.0896783794        0.7418587766        0.2423397897
 H          6.8315974796        0.5704888277       -0.5370253618
 H          6.1262309253        1.7932611456        0.5374380040
 H          5.0633467405       -3.1100939134       -0.7615032436
 H          6.5089445354       -3.2119173768       -1.7678121400
 H          5.0523694624       -1.6759279172       -2.8199776271
 H          6.3742395813       -0.7195052302       -2.1276808607
 O          3.2145485693       -0.8007253349       -1.6189275590
 C          2.1013373190       -0.1550350875       -1.0994487147
 O          1.0142981648       -0.5629948561       -1.5536647488
 O          3.7979764710        2.1308506879        1.1425232975
 C          1.0946617674        1.5828470027        0.3990617582
 C          0.1550325354        0.5974183208        1.0481683743
 C          0.6630307991       -0.2844105242        1.9994304846
 C         -0.1547603788       -1.2179066661        2.6042277756
 C         -1.4954064235       -1.2949033657        2.2693282765
 C         -2.0169832059       -0.4099718976        1.3338033954
 C         -1.1944357928        0.5379874616        0.7393274688
 H         -1.6199673632        1.2081638315        0.0130423556
 N         -3.3911238157       -0.4402953839        1.0237679277
 S         -3.9164921924       -0.3255999231       -0.5772102142
 O         -3.4636290426       -1.4694237203       -1.3392500695
 O         -3.5866051030        0.9737578774       -1.1017121581
 C         -5.6773816341       -0.4297694901       -0.3096590989
 C         -6.3277243585        0.6817734082        0.1918803948
 C         -7.6910932495        0.6106308542        0.4282622627
 C         -8.3781704292       -0.5644741452        0.1611699714
 C         -7.7125096012       -1.6710924686       -0.3435001039
 C         -6.3481515189       -1.6066822879       -0.5808654627
 H         -5.7902658954       -2.4388743715       -0.9794126589
 H         -8.2495161634       -2.5821820678       -0.5529705647
 H         -9.4396504821       -0.6169147672        0.3449871807
 H         -8.2125690995        1.4697606964        0.8183798914
 H         -5.7538810710        1.5748309275        0.3759786712
 H         -3.8495604535       -1.2337425727        1.4544076265
 H         -2.1327978858       -2.0339972869        2.7313402963
 H          0.2546017134       -1.8990527192        3.3353308398
 H          1.7141006014       -0.2317659209        2.2502701271
 H          1.4899708663        2.2500582154        1.1799315452
 C          0.4434140560        2.4263458706       -0.6759422647
 C         -0.3146204102        3.6651626727       -0.3069649100
 C          1.0143926670        3.7753546679       -0.9902096518
 H          1.0423453941        4.0950019178       -2.0211490089
 H          1.8644507827        4.1000855670       -0.4079991576
 H         -1.2056742436        3.9050133026       -0.8675087631
 H         -0.3685515282        3.9228345194        0.7399525178
 H          0.0758919429        1.8330805904       -1.5071441093
