  62
        -98.93589636
 C          2.3034392001        0.7378187078        0.8870815277
 C          3.4871480946        1.0008498175        0.1527552604
 C          4.5495764879       -0.0089461717        0.2755274593
 C          4.3715032316       -1.0869431287        1.0583869367
 C          5.3655296607       -2.1931601535        1.2870733044
 C          5.3453642388       -3.2809542947        0.2043335496
 C          5.9416533615       -2.8695826052       -1.1424958682
 H          6.9353384838       -2.4492353687       -0.9847630403
 H          6.0628177093       -3.7816766562       -1.7302502635
 C          5.0819931336       -1.8792223180       -1.9405376792
 H          4.0638275461       -1.8779563410       -1.5437476681
 H          5.0185848441       -2.2081064419       -2.9802699732
 C          5.6117916111       -0.4452873393       -1.9503932844
 H          4.9087900171        0.1755374984       -2.5112225969
 H          6.5744380079       -0.4139614992       -2.4653861551
 C          5.7828453116        0.1742779970       -0.5572690108
 H          6.6480853128       -0.2584281428       -0.0560044816
 H          5.9458410981        1.2479847373       -0.6772994722
 H          4.3135536746       -3.6108527604        0.0614094329
 H          5.9158368811       -4.1308824801        0.5860544547
 H          5.1034353412       -2.6529439329        2.2424085704
 H          6.3691234351       -1.7744194645        1.3661458301
 O          3.2299063991       -1.2900100203        1.7708034179
 C          2.1726810581       -0.4002913348        1.6875757507
 O          1.1840204553       -0.7204246108        2.3806301624
 O          3.6699227313        2.0126129414       -0.5699092149
 C          1.0893406775        1.6520274807        0.8581910952
 C          0.1953713777        1.3035242822       -0.3047008269
 C          0.6908162236        1.2499697940       -1.6046598194
 C         -0.1418295481        0.9172598913       -2.6567263946
 C         -1.4763451936        0.6260518830       -2.4346215921
 C         -1.9823374140        0.6798446456       -1.1411038818
 C         -1.1449209193        1.0200882086       -0.0870312386
 H         -1.5443093583        1.0381175028        0.9160049735
 N         -3.3446137521        0.4285287621       -0.8990373684
 S         -3.7821294844       -0.4020329993        0.5061379907
 O         -3.7374217856        0.5141466502        1.6176283561
 O         -3.0043989274       -1.6144885757        0.6295334819
 C         -5.4799927925       -0.7892927290        0.1222385041
 C         -5.8167104410       -2.0694169119       -0.2742432259
 C         -7.1374250971       -2.3475662577       -0.5908010688
 C         -8.0925300320       -1.3456280464       -0.5089695554
 C         -7.7392765834       -0.0652190764       -0.1088014035
 C         -6.4213664097        0.2191259984        0.2109585770
 H         -6.1018736578        1.1953404256        0.5361423875
 H         -8.4851256595        0.7104072139       -0.0437508276
 H         -9.1192829253       -1.5647669076       -0.7558912265
 H         -7.4153460911       -3.3428294394       -0.8982707952
 H         -5.0409521885       -2.8172059169       -0.3157730536
 H         -3.8103829383        0.0333643678       -1.7055763473
 H         -2.1231151910        0.3606048421       -3.2571724378
 H          0.2537753608        0.8777497750       -3.6605422344
 H          1.7321104488        1.4747516862       -1.7774997255
 H          0.5316301296        1.4177712929        1.7797081196
 C          1.4522408463        3.1308181659        0.9135913548
 C          1.1873378722        4.0947994174       -0.1999089146
 C          0.3618404408        4.1528088012        1.0476157835
 H          0.5039881183        4.9762355071        1.7310502950
 H         -0.6561531529        3.7949141544        0.9928544101
 H          1.9216221146        4.8662492316       -0.3741238417
 H          0.7236884265        3.7234785461       -1.0997813613
 H          2.3529692615        3.3039355863        1.4933542395
