  62
        -98.94032956
 C          2.4258510491        1.1563648721        0.0956327011
 C          3.3331670396        0.4685519893        0.9410402522
 C          4.1979978826       -0.5233412562        0.2932085728
 C          4.0806381310       -0.7469256182       -1.0281920455
 C          4.9105181363       -1.7021755069       -1.8424100076
 C          4.4101301166       -3.1526617575       -1.8074146869
 C          4.6457218313       -3.8903854069       -0.4887881987
 H          4.4471005174       -4.9480492905       -0.6728819520
 H          5.6948606751       -3.8008627846       -0.2054780127
 C          3.7562118988       -3.4162446916        0.6691571565
 H          2.9131082166       -2.8464696575        0.2707062253
 H          3.3388810960       -4.2827052998        1.1874643434
 C          4.4774484082       -2.5666378791        1.7158172432
 H          5.2388929889       -3.1694922611        2.2155432054
 H          3.7477033364       -2.2562778045        2.4684750936
 C          5.1445230844       -1.3040707147        1.1543045108
 H          5.4338788522       -0.6675142203        1.9941486320
 H          6.0393889236       -1.5700451601        0.5919999328
 H          4.9298472300       -3.6955460153       -2.6001237824
 H          3.3435402145       -3.1599284617       -2.0437023256
 H          5.9468090690       -1.6652266636       -1.5052455973
 H          4.8671227360       -1.3484675378       -2.8747292018
 O          3.1724730824       -0.0947782770       -1.7992144716
 C          2.3065560281        0.8517100049       -1.2615547507
 O          1.5066283278        1.3247913651       -2.0882213244
 O          3.4145022330        0.6735374805        2.1822200743
 C          1.5155768644        2.1894710406        0.7343290024
 C          0.0844149560        1.9607295409        0.3158849575
 C         -0.6999386869        2.9187536824       -0.3112202644
 C         -2.0100002553        2.6343111014       -0.6561505137
 C         -2.5645695404        1.3973238997       -0.3869680218
 C         -1.7906984352        0.4314542970        0.2437043797
 C         -0.4824117563        0.7225487783        0.5959777060
 H          0.1209934850       -0.0313637616        1.0887799996
 N         -2.3418054211       -0.8359264433        0.5061805641
 S         -3.8110252509       -0.9057189395        1.3170049555
 O         -3.9805024195        0.2249425335        2.2003786228
 O         -3.8379430591       -2.2132641877        1.9359174574
 C         -5.0266304156       -0.8536188379        0.0176613902
 C         -6.0195568500        0.1060809504        0.0427653529
 C         -6.9617973919        0.1216950405       -0.9739192941
 C         -6.8950211217       -0.8178621674       -1.9912617789
 C         -5.8929784195       -1.7768963203       -2.0001106537
 C         -4.9488533880       -1.7990365246       -0.9860649709
 H         -4.1567539021       -2.5285429635       -0.9547620249
 H         -5.8439936800       -2.5057898859       -2.7930212262
 H         -7.6280612724       -0.8029516288       -2.7822827563
 H         -7.7417598631        0.8659839139       -0.9687370978
 H         -6.0273874080        0.8202217766        0.8506691011
 H         -1.6852107989       -1.4883618543        0.9095795026
 H         -3.5817501823        1.1712896155       -0.6620749741
 H         -2.6060612868        3.3866677764       -1.1496987165
 H         -0.2804572522        3.8819820814       -0.5497131674
 H          1.5833474624        1.9772342213        1.8154129785
 C          1.9772821469        3.6277097413        0.5529937516
 C          3.4254042540        3.9539732389        0.3458408537
 C          2.4439306809        4.1640286178       -0.7659119668
 H          2.1790092599        5.1779556728       -1.0280441672
 H          2.4589502101        3.4857841882       -1.6041697344
 H          3.8325265004        4.8194873402        0.8467266395
 H          4.1186782360        3.1289673562        0.2672985672
 H          1.4199843987        4.3114735384        1.1862678469
