  62
        -98.94392929
 C         -1.3550751338       -1.6380360135       -0.6431881955
 C         -2.5698090684       -1.5679969126        0.0861578607
 C         -3.5289697907       -0.5380332340       -0.3283581307
 C         -3.2249704322        0.2577692516       -1.3692940566
 C         -4.0728699475        1.3951298653       -1.8587092512
 C         -3.6689971592        2.7109934561       -1.1795244464
 C         -3.5665928935        2.6158230071        0.3430049335
 H         -2.7238454086        1.9688140485        0.6007756061
 H         -3.3171171883        3.6133431941        0.7124501455
 C         -4.8396073974        2.1132798879        1.0389124780
 H         -5.0311811930        2.7435107510        1.9099620637
 H         -5.6931011772        2.2191373042        0.3680529066
 C         -4.7651622361        0.6701188313        1.5415846586
 H         -5.6151141090        0.4981390223        2.2075253920
 H         -3.8539247151        0.5361828411        2.1307232157
 C         -4.8022378021       -0.4166108987        0.4597059419
 H         -5.6535290121       -0.2486268883       -0.2030337129
 H         -4.9382488802       -1.3798613183        0.9601838090
 H         -4.3958675545        3.4790346604       -1.4515784558
 H         -2.6906272107        3.0140532304       -1.5608380105
 H         -3.9296178528        1.4943321066       -2.9361710575
 H         -5.1199640578        1.1758322280       -1.6586498995
 O         -2.0728614110        0.1397825096       -2.0707568209
 C         -1.0867968179       -0.7709047934       -1.7035508028
 O         -0.0657804536       -0.7012765613       -2.4114849763
 O         -2.8361841884       -2.3403744402        1.0473232129
 C         -0.3336616352       -2.6415056133       -0.1373137481
 C          0.4440928108       -2.0531199666        1.0159523375
 C          0.8080283783       -2.8264943286        2.1122858092
 C          1.5131536979       -2.2641030005        3.1619964646
 C          1.8559686679       -0.9243213819        3.1462751604
 C          1.4790564245       -0.1361808351        2.0626970696
 C          0.7941219040       -0.7112846409        1.0027349047
 H          0.4956013470       -0.0925164346        0.1731588475
 N          1.7536300672        1.2328208888        2.0525513299
 S          1.7589317435        2.2000369357        0.6953625838
 O          2.2024810075        3.4822505555        1.2014053434
 O          0.4691880715        2.1852142667        0.0539022239
 C          3.0343476063        1.5294478325       -0.3548037115
 C          2.7292849455        0.8012007292       -1.4854900739
 C          3.7704007291        0.2963334740       -2.2516108665
 C          5.0849600349        0.5203423286       -1.8772754104
 C          5.3742915485        1.2562113130       -0.7372365013
 C          4.3415928220        1.7656832681        0.0305829955
 H          4.5221046274        2.3603360854        0.9112342388
 H          6.3975559705        1.4340919735       -0.4482986542
 H          5.8869593143        0.1220639956       -2.4784688043
 H          3.5354427666       -0.2726295352       -3.1367616394
 H          1.7019047568        0.6233430744       -1.7642000714
 H          2.3449911941        1.5776440395        2.7918666927
 H          2.3905475606       -0.4829080614        3.9730966236
 H          1.7912758466       -2.8736830706        4.0082140986
 H          0.5144252912       -3.8650404133        2.1512086877
 H         -0.9272992354       -3.4781188416        0.2665232916
 C          0.5696670083       -3.2039650956       -1.2243154548
 C          1.9980655464       -2.7907690054       -1.3910952529
 C          1.6732666588       -4.1615139164       -0.8835009290
 H          1.8370531671       -5.0064226375       -1.5349886463
 H          1.8602671539       -4.3636609628        0.1595370938
 H          2.3712589987       -2.6798095730       -2.3968878128
 H          2.4001498263       -2.0672951427       -0.6982560590
 H          0.0192975980       -3.4036900395       -2.1377916356
