  62
        -98.93392355
 C         -2.3222728004        0.1482210477       -0.2131003865
 C         -3.5025747838        0.4713684713       -0.9219067402
 C         -4.7174440570       -0.2675069491       -0.5411183334
 C         -4.6456736433       -1.1970506343        0.4272257176
 C         -5.7402608398       -2.0957193903        0.9465040328
 C         -7.1216193129       -1.4684323623        1.1802152730
 C         -7.1010108549        0.0015154727        1.6240912340
 H         -7.7221036783        0.1117755762        2.5149947497
 H         -6.0861807425        0.2966132248        1.8964881945
 C         -7.6403993688        0.9553021763        0.5553641830
 H         -7.9419259453        1.8883873053        1.0373890320
 H         -8.5348187129        0.5132860830        0.1109794503
 C         -6.6569688491        1.3184511678       -0.5565652071
 H         -5.8676945341        1.9616104273       -0.1578584239
 H         -7.1968499321        1.9022305352       -1.3060043813
 C         -5.9781350585        0.1286768347       -1.2546495823
 H         -6.6622877417       -0.7096286628       -1.3600711380
 H         -5.6700260571        0.4557042704       -2.2514741264
 H         -7.6161781581       -2.0719100958        1.9431862024
 H         -7.7200773367       -1.5565634455        0.2746016885
 H         -5.3550315765       -2.4949345080        1.8877491082
 H         -5.8423648575       -2.9391797488        0.2575254150
 O         -3.4822931945       -1.4822463011        1.0793567986
 C         -2.2991798243       -0.8232103920        0.7858323315
 O         -1.3245999272       -1.1883008786        1.4704168404
 O         -3.5380701021        1.3296902871       -1.8443037201
 C         -1.0378420992        0.8814127057       -0.5507950342
 C          0.0336130776       -0.0968089219       -0.9636475656
 C         -0.2572613312       -1.0329019276       -1.9537855371
 C          0.6956598834       -1.9417890033       -2.3689317244
 C          1.9652265638       -1.9283937211       -1.8177474908
 C          2.2661050276       -0.9991810631       -0.8299200775
 C          1.3032005027       -0.0909690914       -0.4099883528
 H          1.5666828923        0.6171774606        0.3573617068
 N          3.5367873491       -0.9766455262       -0.2334985398
 S          4.1864726055        0.5066314451        0.2403459116
 O          3.6725839538        0.8551968934        1.5408450040
 O          3.9985590813        1.4873117230       -0.8051495394
 C          5.9104467741        0.0687444824        0.3730555044
 C          6.3469649061       -0.5659631115        1.5207172290
 C          7.6789688358       -0.9363170458        1.6157391192
 C          8.5472062016       -0.6683837186        0.5676324171
 C          8.0950659897       -0.0291960534       -0.5769925085
 C          6.7637914136        0.3429666185       -0.6791093381
 H          6.3692649482        0.8491720128       -1.5454298485
 H          8.7733310238        0.1808993977       -1.3882105319
 H          9.5836124936       -0.9566918001        0.6450755447
 H          8.0346164010       -1.4309379663        2.5051876031
 H          5.6375031578       -0.7456865606        2.3117897300
 H          4.2139973981       -1.5428710779       -0.7258296073
 H          2.7118896347       -2.6367670363       -2.1431353262
 H          0.4522982693       -2.6632099736       -3.1346009629
 H         -1.2469266002       -1.0378205719       -2.3906247100
 H         -1.2786197717        1.5089495969       -1.4226759383
 C         -0.6264122355        1.7825040614        0.5940504021
 C          0.2108470703        2.9975930398        0.3328879723
 C         -1.2325040507        3.1479334360        0.7065165101
 H         -1.4753680552        3.5255229977        1.6884294502
 H         -1.9306918464        3.4446427536       -0.0626049253
 H          0.9673232136        3.2651900419        1.0559066839
 H          0.4986355025        3.1951816032       -0.6889622099
 H         -0.4527335856        1.2345819448        1.5144476394
