  62
        -98.94016238
 C         -0.4928244211       -1.7976422009        0.8334050511
 C          0.5412687216       -2.4993528303        0.1615460214
 C          1.9146408339       -2.0555629928        0.4203775450
 C          2.1312427337       -1.0539102769        1.2900654075
 C          3.4643126616       -0.4568976038        1.6521044157
 C          4.1574131853        0.3131632664        0.5096099574
 C          5.1919933060       -0.5145953835       -0.2634722129
 H          5.5451793522       -1.3240066048        0.3771110409
 H          6.0569150378        0.1162865821       -0.4789536712
 C          4.7168844381       -1.0929485555       -1.6000780950
 H          5.4351617586       -1.8561286455       -1.9092634885
 H          4.7292647197       -0.3021988480       -2.3541311144
 C          3.3127311388       -1.6994907757       -1.6081462042
 H          3.1823415170       -2.2420777788       -2.5473786512
 H          2.5671767299       -0.8989442750       -1.6124873919
 C          3.0067913487       -2.6408162677       -0.4254586229
 H          3.9028063733       -2.8219966990        0.1665998261
 H          2.6378455036       -3.5981458477       -0.7994967117
 H          4.6682364118        1.1679490956        0.9572060732
 H          3.4013283550        0.7056877697       -0.1731966877
 H          4.1249262476       -1.2472816214        2.0145989829
 H          3.2698471361        0.2251027225        2.4822624755
 O          1.1224479594       -0.4580817829        1.9752735942
 C         -0.2104845479       -0.7554351436        1.7166083288
 O         -1.0043142782       -0.0280823503        2.3446088018
 O          0.3181523827       -3.4535247957       -0.6329701106
 C         -1.9080276268       -2.1173240864        0.3843070622
 C         -2.2175799106       -1.2958681686       -0.8490116653
 C         -2.9017816141       -1.8324076449       -1.9330311051
 C         -3.1038284895       -1.0802892200       -3.0771714321
 C         -2.5963234384        0.2031997795       -3.1788420666
 C         -1.9154350232        0.7490297816       -2.0972735205
 C         -1.7701800073        0.0135099320       -0.9323668706
 H         -1.2553790565        0.4582635320       -0.0961988799
 N         -1.3536476025        2.0336666723       -2.1446957966
 S          0.1145917713        2.2997611281       -1.3770066587
 O          0.6671413015        3.4557650771       -2.0561638493
 O          0.9510488079        1.1208960090       -1.3857559817
 C         -0.2965318153        2.7735059942        0.2874728889
 C          0.6739974620        2.6324025690        1.2579817777
 C          0.3901199504        3.0286344182        2.5541516791
 C         -0.8525511551        3.5615878209        2.8545961006
 C         -1.8138402361        3.7041032605        1.8666833565
 C         -1.5363422996        3.3105884960        0.5678004591
 H         -2.2666714118        3.3951998399       -0.2200152426
 H         -2.7826406740        4.1127794739        2.1058078067
 H         -1.0749508938        3.8591538614        3.8672683862
 H          1.1345833990        2.9072464438        3.3246788543
 H          1.6227443939        2.1956731712        0.9881144631
 H         -1.3972372158        2.4948232090       -3.0418259033
 H         -2.7155502912        0.7734478255       -4.0873799309
 H         -3.6358107430       -1.5086174886       -3.9130225131
 H         -3.2548677674       -2.8515100133       -1.8866256321
 H         -1.8959329910       -3.1737541039        0.0813230049
 C         -2.9797238134       -1.9306936396        1.4377741652
 C         -4.2442001669       -2.7298720996        1.3481111278
 C         -3.2428249751       -3.0290589278        2.4220697371
 H         -3.4741706606       -2.7587681253        3.4409463005
 H         -2.6530285143       -3.9298210603        2.3332732711
 H         -5.1715786324       -2.2546439715        1.6277923481
 H         -4.3387187066       -3.4355451782        0.5370100046
 H         -3.0496508630       -0.9137692970        1.8002616177
