  62
        -98.94492294
 C         -1.9610508294       -0.8519541586        0.0703072974
 C         -2.2549078542        0.1137597410        1.0601564590
 C         -2.3480018970        1.5031706144        0.5959650352
 C         -2.1195105464        1.7783163348       -0.7014067263
 C         -2.2128594056        3.1447584513       -1.3159165934
 C         -3.6251221953        3.4227072869       -1.8499616848
 C         -4.7359322806        3.1099039740       -0.8474479076
 H         -5.6846009519        3.3704581590       -1.3214073109
 H         -4.7529087458        2.0337714786       -0.6609543112
 C         -4.6108514232        3.8528936555        0.4898922217
 H         -3.9372057201        4.7032909542        0.3795875821
 H         -5.5911238601        4.2476387671        0.7646890340
 C         -4.1390290088        2.9828461541        1.6563514692
 H         -4.2919540669        3.5426560820        2.5827836822
 H         -4.7535354656        2.0809634982        1.7129745397
 C         -2.6653972831        2.5576036152        1.6190228257
 H         -2.4199718173        2.1142343883        2.5888457161
 H         -2.0294322680        3.4341849109        1.4762332858
 H         -3.6817225477        4.4722671633       -2.1440413088
 H         -3.7838018191        2.8099243863       -2.7401919419
 H         -1.5006091363        3.1947880892       -2.1414398274
 H         -1.9395635514        3.8893717253       -0.5704874371
 O         -1.8244546822        0.8259105899       -1.6222239713
 C         -1.7238748184       -0.5076565177       -1.2606537835
 O         -1.4395343460       -1.2762391235       -2.1997910111
 O         -2.4287853848       -0.1744247876        2.2769459168
 C         -1.7942337910       -2.3036241266        0.4807224674
 C         -0.3939604685       -2.7587283636        0.1482142530
 C         -0.1018420243       -3.9890103576       -0.4259242285
 C          1.2048285903       -4.3201077130       -0.7418907094
 C          2.2390503689       -3.4337211754       -0.5066280986
 C          1.9588839667       -2.2080668624        0.0881840336
 C          0.6552949707       -1.8926110149        0.4294892242
 H          0.4508801262       -0.9361831434        0.8900727064
 N          2.9845698234       -1.2862238341        0.3664296895
 S          2.6225460065        0.3597958041        0.2427320925
 O          2.0135664945        0.7938137178        1.4763471396
 O          1.8838913719        0.6296593474       -0.9703613149
 C          4.2709141643        1.0323809283        0.1285846318
 C          4.7792816339        1.3826243291       -1.1077373595
 C          6.0734765350        1.8733411066       -1.1860311688
 C          6.8340451874        2.0009358910       -0.0335373308
 C          6.3098897145        1.6455780966        1.2006425487
 C          5.0163117323        1.1559658881        1.2861441422
 H          4.5617749176        0.8758125640        2.2220070423
 H          6.9030699261        1.7486269293        2.0948254180
 H          7.8407286289        2.3825452479       -0.0974811130
 H          6.4816864500        2.1533767536       -2.1437217155
 H          4.1470672988        1.2718389743       -1.9743671474
 H          3.8471122934       -1.5085729830       -0.1126444052
 H          3.2531623770       -3.6835679688       -0.7789996651
 H          1.4176132115       -5.2759773583       -1.1960979519
 H         -0.8984204953       -4.6825680355       -0.6401597100
 H         -1.9113775239       -2.3150558723        1.5753031833
 C         -2.8749339287       -3.1660268225       -0.1369949245
 C         -3.3600797499       -4.3957195194        0.5694743746
 C         -4.2346705692       -3.1817184109        0.4925965594
 H         -5.1007138018       -3.2062546379       -0.1515690402
 H         -4.3714038822       -2.5897893653        1.3859898615
 H         -3.6301371857       -5.2571970194       -0.0223834634
 H         -2.9103580679       -4.6349486416        1.5212048211
 H         -2.8235706728       -3.1794363318       -1.2200461928
