  62
        -98.93452843
 C         -1.6991885493       -1.6437657268        0.4728713317
 C         -1.7731558522       -0.4046711730        1.1551577463
 C         -2.8863106792        0.4980809356        0.8080211180
 C         -3.7567470985        0.1086086704       -0.1418541726
 C         -4.9437772874        0.8566041566       -0.6895028152
 C         -4.5414575457        1.9852911337       -1.6506319466
 C         -3.3991467039        2.8668592185       -1.1539976930
 H         -2.5191206416        2.2442954195       -0.9836992975
 H         -3.1536292915        3.5710590024       -1.9533186229
 C         -3.7080770762        3.6745871110        0.1047942658
 H         -4.5985477636        4.2825082342       -0.0695743060
 H         -2.8722280630        4.3594239895        0.2693034289
 C         -3.9135754978        2.8643230339        1.3877710417
 H         -4.9156010814        2.4455995056        1.4336970974
 H         -3.8318929767        3.5597018394        2.2281984777
 C         -2.8801321210        1.7675866622        1.6248373705
 H         -1.8729070625        2.1861498085        1.5248320712
 H         -2.9531343318        1.4414515650        2.6693316363
 H         -5.4221536673        2.5992821258       -1.8475389151
 H         -4.2290260538        1.5313758550       -2.5942898230
 H         -5.5527066292        1.2414094809        0.1231490720
 H         -5.5448358266        0.1290926979       -1.2396235855
 O         -3.6305059666       -1.0815511987       -0.7934131192
 C         -2.6074632677       -1.9778637811       -0.5311207802
 O         -2.6393412519       -2.9986714374       -1.2426032567
 O         -0.9368755508       -0.0619966376        2.0342433764
 C         -0.5386066324       -2.5492041793        0.8491235309
 C          0.6532344238       -2.1311958422        0.0277542031
 C          0.6302846072       -2.2130336859       -1.3618118665
 C          1.7054372382       -1.7644533689       -2.1062516525
 C          2.8134366825       -1.2113761772       -1.4858585002
 C          2.8352430242       -1.1070565820       -0.1020490225
 C          1.7626326196       -1.5756578930        0.6458381440
 H          1.7782154814       -1.4803413448        1.7227761559
 N          3.9450543691       -0.5172572872        0.5355004908
 S          4.3619963025        1.0307552397        0.0460642313
 O          4.9812803028        0.9654388665       -1.2532999980
 O          5.1777791296        1.5595566273        1.1151153390
 C          2.8168886922        1.9149062659       -0.0551726841
 C          2.2560311768        2.3883634771        1.1140360005
 C          1.0344755339        3.0381470511        1.0572457780
 C          0.3936874999        3.1927774719       -0.1620300551
 C          0.9652348994        2.7039464981       -1.3261547347
 C          2.1899585759        2.0582641362       -1.2762130571
 H          2.6711901637        1.6738377233       -2.1603112905
 H          0.4596126602        2.8231335339       -2.2711154513
 H         -0.5578437867        3.6989237874       -0.2076667938
 H          0.5852497868        3.4145839587        1.9624155343
 H          2.7873418213        2.2561987058        2.0429094703
 H          3.8842879785       -0.5476835983        1.5436205692
 H          3.6543143269       -0.8468019532       -2.0533921588
 H          1.6799632353       -1.8399707305       -3.1829006862
 H         -0.2446821054       -2.6228751725       -1.8446960651
 H         -0.3186055282       -2.2994018098        1.8987993694
 C         -0.8589445503       -4.0348036994        0.7856612232
 C         -0.0853024977       -5.0110782766       -0.0456052694
 C          0.0669406556       -5.0156659003        1.4435580122
 H         -0.3563422879       -5.8315271746        2.0096341504
 H          0.9894604054       -4.6282806684        1.8502436366
 H         -0.6354843002       -5.8125373391       -0.5147559615
 H          0.7386706961       -4.6446531384       -0.6375600341
 H         -1.9200885611       -4.2330874985        0.8843359906
