  62
        -98.93656000
 C         -2.2850946905       -0.6743435110       -0.2960408252
 C         -3.3121798338       -0.7052800142        0.6843177501
 C         -4.0769765243        0.5330993148        0.8739252950
 C         -3.7600333732        1.6160776971        0.1418198905
 C         -4.4867675799        2.9280886435        0.1891750964
 C         -5.6189867117        2.9733544306       -0.8465517273
 C         -6.5309442938        1.7467640229       -0.8185234434
 H         -7.3088406227        1.9025831727       -1.5691441223
 H         -5.9580266570        0.8693400494       -1.1274983484
 C         -7.1826823333        1.4710463814        0.5437344943
 H         -7.1350229929        2.3658818427        1.1652515628
 H         -8.2386344085        1.2414721343        0.3864426843
 C         -6.5797423094        0.2909598690        1.3082014187
 H         -7.2455641005        0.0495010452        2.1409487917
 H         -6.5399411341       -0.5859162793        0.6570131271
 C         -5.1805328036        0.5196689056        1.8938775156
 H         -4.9592297770       -0.3168935269        2.5629893961
 H         -5.1733582931        1.4402968046        2.4808893856
 H         -6.2111398806        3.8733493255       -0.6713700197
 H         -5.1749258188        3.0468112232       -1.8420016003
 H         -4.8888918743        3.0774687831        1.1892975755
 H         -3.7739130555        3.7248124980       -0.0296216783
 O         -2.7563825149        1.6189963301       -0.7697164402
 C         -1.9965474811        0.4824732435       -1.0203643881
 O         -1.1209307006        0.6562280809       -1.8896688018
 O         -3.5805828316       -1.7311849713        1.3645313290
 C         -1.5172807080       -1.9673734482       -0.5113640429
 C         -0.2407304191       -1.9870168830        0.2893844835
 C          0.0361867640       -3.0232531804        1.1725393016
 C          1.2190674499       -3.0387625341        1.8919605371
 C          2.1499668992       -2.0263986466        1.7431304891
 C          1.8825091915       -0.9874325943        0.8611974550
 C          0.6938105461       -0.9700954557        0.1469424925
 H          0.4903208092       -0.1604889658       -0.5393816619
 N          2.8278202382        0.0547088144        0.6963133880
 S          4.2803446794       -0.4212994861       -0.0326062311
 O          4.0448598727       -0.8001787287       -1.4099843842
 O          4.9039022621       -1.4181001485        0.7988972985
 C          5.2067090594        1.0977581266        0.0408068919
 C          5.2234950855        1.9367748371       -1.0563797627
 C          5.9236318448        3.1304473885       -0.9762359276
 C          6.5878477411        3.4634974898        0.1945319875
 C          6.5610105429        2.6104289798        1.2878917318
 C          5.8638702194        1.4153159943        1.2138178743
 H          5.8214703591        0.7180270868        2.0339328947
 H          7.0805450854        2.8724296817        2.1954447891
 H          7.1316762729        4.3930451797        0.2537637080
 H          5.9477053040        3.7940753538       -1.8256932474
 H          4.6997380169        1.6344877115       -1.9494603441
 H          2.4350333311        0.7966949337        0.1287025250
 H          3.0821737956       -2.0370125168        2.2829120497
 H          1.4193514369       -3.8490932931        2.5764454423
 H         -0.6874942526       -3.8152501372        1.3000784580
 H         -2.1748713761       -2.7489674604       -0.0991200191
 C         -1.2999664244       -2.2925953555       -1.9839948747
 C          0.0379603051       -2.3162409996       -2.6552555194
 C         -0.6802126330       -3.6008148891       -2.3782242943
 H         -1.1040217232       -4.1497707462       -3.2053259573
 H         -0.2930650812       -4.2230870336       -1.5850929415
 H          0.0898916672       -1.9574331271       -3.6722459948
 H          0.9203353196       -2.0871227772       -2.0772165549
 H         -2.1271855080       -1.9470893118       -2.5964998360
