  62
        -98.94103166
 C         -2.5714853062       -0.1939808122        0.4927939500
 C         -2.2034905626        0.3426882498       -0.7661372879
 C         -2.0107514664        1.8001820260       -0.8117783196
 C         -2.1933826082        2.5297532049        0.3021783645
 C         -2.0455086651        4.0210884565        0.3912042288
 C         -0.6337911512        4.4353744086        0.8247277896
 C          0.4871034735        3.7660052861        0.0292650116
 H          1.4298012458        4.1929425446        0.3804103465
 H          0.5172361667        2.6998770538        0.2660568501
 C          0.3859472145        3.9380608387       -1.4925806607
 H         -0.2619459066        4.7829208511       -1.7312455904
 H          1.3800261897        4.1703337313       -1.8800602884
 C         -0.1017755245        2.6913751053       -2.2343360992
 H          0.4422041121        1.8179660188       -1.8645840375
 H          0.1343260573        2.8090098367       -3.2955502791
 C         -1.6043062070        2.3988056478       -2.1282530842
 H         -2.1753513034        3.3064581513       -2.3367764960
 H         -1.8552195879        1.6513506791       -2.8866268869
 H         -0.5523990527        5.5202948097        0.7288119109
 H         -0.5041533582        4.1763778756        1.8783869133
 H         -2.2808534233        4.4575084421       -0.5777982055
 H         -2.7621169693        4.3890964805        1.1282947707
 O         -2.5295826132        1.9786783871        1.4983063846
 C         -2.6832023211        0.6084410307        1.6290405143
 O         -2.9264341083        0.2311198178        2.7951323722
 O         -2.0575273688       -0.3464624251       -1.8087168861
 C         -2.7392534181       -1.6901718348        0.7010480930
 C         -1.6048983648       -2.4248942497        0.0269598995
 C         -1.7672521603       -3.5397723218       -0.7828748101
 C         -0.6646597622       -4.1509980687       -1.3574041123
 C          0.6089482059       -3.6537342686       -1.1611988115
 C          0.7802763104       -2.5271968661       -0.3608407862
 C         -0.3169156835       -1.9530461804        0.2542233391
 H         -0.1750024334       -1.0976004468        0.9003017756
 N          2.0534174170       -1.9508317870       -0.2145515262
 S          2.3095826718       -0.5797135357        0.7106908796
 O          2.1707761035       -0.8742804468        2.1231584338
 O          1.4996432574        0.4923708399        0.1943252833
 C          4.0237253436       -0.2817669677        0.3246660134
 C          5.0085074313       -0.7659964307        1.1644147380
 C          6.3374146066       -0.5515548060        0.8336052742
 C          6.6572649953        0.1377537698       -0.3263327905
 C          5.6578517125        0.6201099287       -1.1584319013
 C          4.3275913453        0.4093418725       -0.8326615690
 H          3.5162395456        0.7717315635       -1.4426516339
 H          5.9092502202        1.1589210687       -2.0576832395
 H          7.6918694087        0.3034788956       -0.5818862979
 H          7.1163492814       -0.9217694166        1.4804457630
 H          4.7123427947       -1.2860205360        2.0612745903
 H          2.8206139512       -2.6053763238       -0.1953041283
 H          1.4630342309       -4.1162527197       -1.6305207305
 H         -0.8040247465       -5.0209363475       -1.9812881930
 H         -2.7547711038       -3.9227921696       -0.9809225498
 H         -2.6273793543       -1.8364562822        1.7896646230
 C         -4.1149877251       -2.2257728396        0.3300184070
 C         -5.3065060003       -1.3196709296        0.2511112968
 C         -4.7479060350       -1.9327232181       -0.9958775085
 H         -5.3146668786       -2.7157080384       -1.4780612909
 H         -4.1969319489       -1.3041394585       -1.6770059411
 H         -6.2501581231       -1.6836468754        0.6293356663
 H         -5.1458240161       -0.2646571707        0.4212551567
 H         -4.2948331883       -3.2104332416        0.7505733352
