  62
        -98.94172931
 C         -2.2551729535       -0.7468514466        0.0758813755
 C         -3.4366206661       -1.0632332270        0.7980289303
 C         -4.3783585547        0.0391548669        1.0289576169
 C         -4.0541000445        1.2755854510        0.6107730620
 C         -4.9368528949        2.4827774555        0.7349179510
 C         -5.8201950287        2.6544530259       -0.5089781341
 C         -6.5509772618        1.3790393348       -0.9291617976
 H         -7.1644813703        1.6274281936       -1.7979088688
 H         -5.8167312998        0.6392359704       -1.2564991910
 C         -7.4366356188        0.7651113443        0.1641705647
 H         -7.6387461503        1.5075938530        0.9369129574
 H         -8.3958763080        0.4876459644       -0.2777378658
 C         -6.8630163057       -0.4965348602        0.8120210034
 H         -7.6539590076       -0.9642382064        1.4041920647
 H         -6.5734439302       -1.2079844542        0.0343942529
 C         -5.6618960732       -0.2818542187        1.7416332375
 H         -5.4815826337       -1.2197115303        2.2750302619
 H         -5.8983084263        0.4908767727        2.4758405017
 H         -6.5471308788        3.4438798711       -0.3096543521
 H         -5.1882544553        2.9768059998       -1.3399594704
 H         -5.5572754102        2.3827280559        1.6234662947
 H         -4.3012332800        3.3633092469        0.8434654648
 O         -2.8882718335        1.5558691734       -0.0222169834
 C         -1.9645645176        0.5597140404       -0.3222083870
 O         -0.9638065993        0.9822597459       -0.9313811800
 O         -3.6916376372       -2.2188292571        1.2294238359
 C         -1.2839157058       -1.8862303557       -0.1851975901
 C          0.1024492541       -1.4951198503        0.2551494566
 C          0.4339588811       -1.5528672228        1.6054376763
 C          1.6835553700       -1.1550526623        2.0419070374
 C          2.6232254842       -0.6797675711        1.1436469026
 C          2.2933094877       -0.5969756376       -0.2020038317
 C          1.0474082385       -1.0246143834       -0.6419007512
 H          0.7966916234       -0.9462632749       -1.6882839254
 N          3.2325335721       -0.1044033691       -1.1225057856
 S          4.1423105253        1.2456880853       -0.7190199727
 O          3.4565996943        2.1163880724        0.2069290231
 O          4.5305614434        1.8280419886       -1.9856575822
 C          5.5882882346        0.5489450033        0.0566729522
 C          6.2800170642       -0.4373676145       -0.6189949577
 C          7.4110741050       -0.9831199628       -0.0336016180
 C          7.8317992948       -0.5341899426        1.2093851967
 C          7.1295080529        0.4596309014        1.8732737361
 C          5.9965011402        1.0089171623        1.2931795322
 H          5.4159945122        1.7799144634        1.7748650024
 H          7.4579379808        0.8084441391        2.8391594122
 H          8.7121556758       -0.9609655716        1.6633810441
 H          7.9597473788       -1.7561289506       -0.5471094765
 H          5.9219679512       -0.7562600078       -1.5834304651
 H          2.8667568583       -0.0195636028       -2.0600545998
 H          3.5935748312       -0.3520833926        1.4789216128
 H          1.9291417986       -1.2099961256        3.0916414390
 H         -0.3058845099       -1.9048636042        2.3111409913
 H         -1.6355233808       -2.6951505684        0.4753152161
 C         -1.3210288768       -2.4403674093       -1.6020258159
 C         -2.6267265189       -2.5931127526       -2.3218125945
 C         -1.6144821500       -1.6019333132       -2.8083334968
 H         -1.0820048509       -1.8223883715       -3.7224790404
 H         -1.8076391837       -0.5506241246       -2.6625862419
 H         -2.7969496957       -3.4865760454       -2.9031401739
 H         -3.5106878941       -2.2170317707       -1.8274491719
 H         -0.5996328060       -3.2409995305       -1.7354693048
