  62
        -98.94096912
 C         -2.5860031135       -1.3634109339        0.2611241083
 C         -2.8171717085       -0.5243561277       -0.8564950626
 C         -3.6390034895        0.6677076956       -0.6009704138
 C         -4.1131649303        0.9115599519        0.6332243588
 C         -4.9670339592        2.0804475859        1.0430742525
 C         -4.1676330265        3.3493805186        1.3695148671
 C         -3.5677530888        4.0692253818        0.1609751767
 H         -4.3468291062        4.2413890797       -0.5824157942
 H         -3.2247208241        5.0461186345        0.5072046620
 C         -2.3860681628        3.3371886951       -0.4911177813
 H         -1.9875883638        2.5912928352        0.2019353200
 H         -1.5766995692        4.0456970598       -0.6848006173
 C         -2.7187253377        2.6560861004       -1.8188086810
 H         -1.8184742767        2.1473455869       -2.1738140776
 H         -2.9894854369        3.4121683662       -2.5592766675
 C         -3.8513593632        1.6239213938       -1.7361792990
 H         -4.8114428146        2.1287934509       -1.6337000515
 H         -3.8550633727        1.0455475241       -2.6633528643
 H         -4.8448349044        4.0401940896        1.8769283493
 H         -3.3700134087        3.0902722728        2.0699373485
 H         -5.6935283841        2.2978527897        0.2597651980
 H         -5.5047781076        1.7718515649        1.9420572874
 O         -3.8714527365        0.0811507591        1.6816539173
 C         -3.0934594147       -1.0530386206        1.5267885865
 O         -2.9355756789       -1.7088582464        2.5758674529
 O         -2.3719099348       -0.7356548305       -2.0149880177
 C         -1.7459746501       -2.6308400472        0.1952984604
 C         -0.2909236672       -2.2845323294        0.3803943495
 C          0.4616767742       -2.8459719440        1.4042065387
 C          1.7835748275       -2.4778691900        1.5887283771
 C          2.3791283144       -1.5447620030        0.7590549985
 C          1.6331611334       -0.9746912224       -0.2644621314
 C          0.3118499033       -1.3491057704       -0.4506188157
 H         -0.2656471937       -0.9017772823       -1.2468418039
 N          2.2287061425       -0.0132870969       -1.1071072506
 S          2.7971685329        1.3755224883       -0.3451644884
 O          2.0723999450        1.6397388939        0.8773499080
 O          2.7621906438        2.4124596905       -1.3532474356
 C          4.4933303790        0.9768704535        0.0205483824
 C          4.9457559343        1.0112108981        1.3248019749
 C          6.2703192147        0.6930127948        1.5827055150
 C          7.1135297745        0.3484936631        0.5374072246
 C          6.6438073560        0.3210924209       -0.7675010975
 C          5.3213551337        0.6388891554       -1.0321817457
 H          4.9161710166        0.6335011578       -2.0302720954
 H          7.3026432804        0.0527103934       -1.5775013535
 H          8.1430279422        0.0997400625        0.7411607151
 H          6.6371425696        0.7137146449        2.5963589328
 H          4.2510522695        1.2783428481        2.1052065699
 H          1.6349605713        0.2436816223       -1.8838979826
 H          3.4062901051       -1.2502421104        0.9008029744
 H          2.3554383542       -2.9200306298        2.3901459663
 H         -0.0027070722       -3.5587429380        2.0699218750
 H         -2.0587731919       -3.2259154319        1.0673053034
 C         -2.0233327647       -3.4647073718       -1.0489119315
 C         -1.0074872060       -3.7360415833       -2.1143307331
 C         -1.4139301734       -4.8298548023       -1.1764555447
 H         -2.0246444687       -5.6376859770       -1.5497949597
 H         -0.7034328362       -5.1249289555       -0.4188633528
 H         -1.3549142406       -3.7687275651       -3.1357970459
 H         -0.0213887104       -3.3130880948       -2.0047027688
 H         -3.0496954306       -3.3590845915       -1.3846870139
