  62
        -98.93561988
 C          1.8192256430        1.4273102320        0.3414608724
 C          1.5796642909        0.1745516143       -0.2709701777
 C          2.4135680103       -0.9577907979        0.1898884501
 C          3.3129781296       -0.7515633506        1.1686803803
 C          4.2998605225       -1.7359007682        1.7344693747
 C          5.5066923579       -1.9590213014        0.8036879719
 C          5.1767571776       -2.0226764104       -0.6866010692
 H          4.6329066125       -1.1203694651       -0.9729188151
 H          6.1217067803       -2.0166878120       -1.2362680400
 C          4.3890250424       -3.2534364112       -1.1294483796
 H          4.2305594753       -3.1705829446       -2.2076717661
 H          4.9935157482       -4.1457705096       -0.9502757750
 C          3.0317805684       -3.4546687612       -0.4560786358
 H          2.5245368423       -4.2684590793       -0.9829763883
 H          3.1599212213       -3.7861561693        0.5708876175
 C          2.0928898478       -2.2524862428       -0.5179338498
 H          1.9335011186       -1.9806777364       -1.5673500144
 H          1.1117545541       -2.5672239297       -0.1397512866
 H          6.0132721558       -2.8767197314        1.1064797471
 H          6.2000630613       -1.1275128935        0.9513592391
 H          4.6604325697       -1.3176288547        2.6768323256
 H          3.7988288653       -2.6730240147        1.9599860865
 O          3.4765260449        0.4642446415        1.7637479917
 C          2.7376414642        1.5684629626        1.3833865216
 O          2.9757877354        2.5997028558        2.0442794096
 H         -0.4489003133        1.3463169976        1.7042592999
 C         -1.0435329445        1.6507363045        0.8507479559
 C         -0.4326930634        2.3489724375       -0.1840956272
 C         -1.2076010675        2.7212159338       -1.2746461030
 C         -2.5563731138        2.4109600334       -1.3170854890
 C         -3.1582746627        1.7112209473       -0.2884530251
 C         -2.3861052627        1.3128548559        0.7960363497
 N         -2.9717742840        0.5587998784        1.8256566838
 S         -4.0633170800       -0.6404423941        1.4129335864
 O         -5.3823915114       -0.0660726159        1.3023036260
 O         -3.9101250685       -1.6528606371        2.4362804605
 C         -3.5630833921       -1.2794880980       -0.1773027700
 C         -2.2432728912       -1.6284737584       -0.3804304614
 C         -1.8616847822       -2.1139388804       -1.6200352510
 C         -2.8036676312       -2.2535563248       -2.6271572398
 C         -4.1284548897       -1.9118982914       -2.4042920008
 C         -4.5133739674       -1.4154398849       -1.1696368737
 H         -5.5285358605       -1.1217712656       -0.9564603070
 H         -4.8593394385       -2.0224614045       -3.1891450167
 H         -2.4996416290       -2.6280472568       -3.5918248695
 H         -0.8260774277       -2.3540284008       -1.7960442218
 H         -1.5216474382       -1.5036639131        0.4115744726
 H         -2.3183443288        0.2343613254        2.5227962124
 H         -4.2077553456        1.4646425325       -0.3067154676
 H         -3.1464744136        2.7119062437       -2.1689933246
 H         -0.7553670836        3.2412900638       -2.1023821717
 C          1.0368426347        2.6697191344       -0.0471857492
 H          1.1459645699        3.3511981718        0.8136641983
 C          1.6071715749        3.4033399978       -1.2533354194
 C          3.0386464687        3.2307242186       -1.6634630426
 C          1.9416434199        2.6898571671       -2.5276296269
 H          1.7371068913        3.1870911715       -3.4644443533
 H          1.7831060802        1.6237457262       -2.5533491172
 H          3.5812448452        4.1015829080       -2.0000460588
 H          3.6435615645        2.5338253841       -1.1012362647
 H          1.2057835209        4.4076972810       -1.3452816909
 O          0.7183445785       -0.0122971653       -1.1668955633
