  62
        -98.93588049
 C         -2.4963428859       -1.0202551005        0.5886596164
 C         -2.5450987996        0.2612890427        1.1960010817
 C         -3.7725164499        1.0398769536        0.9887376810
 C         -4.7753930746        0.5015090920        0.2716801201
 C         -6.0594898519        1.1994575389       -0.0691463709
 C         -5.9465055116        1.9449327170       -1.4063843573
 C         -4.7010250546        2.8240834146       -1.5206584129
 H         -3.8127292553        2.1877953336       -1.5251906318
 H         -4.7429979491        3.3233012313       -2.4911131471
 C         -4.5625824782        3.8757037762       -0.4109503409
 H         -4.2808209638        4.8284882631       -0.8639856089
 H         -5.5238905496        4.0227842282        0.0825558881
 C         -3.4994292113        3.5523858111        0.6408021423
 H         -3.3338881064        4.4486574929        1.2448615206
 H         -2.5532272251        3.3130202873        0.1477311112
 C         -3.8409147259        2.4088570371        1.6044880272
 H         -3.0943971647        2.4145767519        2.4043893155
 H         -4.8229519761        2.5829301795        2.0492817148
 H         -6.8397806256        2.5585065082       -1.5359104893
 H         -5.9194736758        1.2077820773       -2.2119863355
 H         -6.3100451515        1.8964398091        0.7281158372
 H         -6.8483793031        0.4496027780       -0.1466226316
 O         -4.7080385905       -0.7389063036       -0.2697210026
 C         -3.5693330463       -1.5280802279       -0.1458938473
 O         -3.6630082057       -2.6259629525       -0.7226363594
 O         -1.6022686363        0.7295645130        1.8919800066
 C         -1.2179127826       -1.8152286365        0.7846458118
 C         -0.2532616453       -1.5754033809       -0.3493015944
 C         -0.6454944184       -1.7285449639       -1.6761403443
 C          0.2538718073       -1.5017507431       -2.7014603182
 C          1.5531825091       -1.1130431292       -2.4265878668
 C          1.9565152281       -0.9598891862       -1.1052030205
 C          1.0524069108       -1.1934538827       -0.0773922665
 H          1.3721368063       -1.0509225773        0.9440335353
 N          3.2826664906       -0.6056820315       -0.8023341060
 S          3.5689134148        0.4420360562        0.4929247414
 O          3.4801589909       -0.3059181200        1.7212197481
 O          2.7254665403        1.6104840452        0.3797174727
 C          5.2699071122        0.8721928238        0.1747682886
 C          5.5612527632        2.0605684769       -0.4677339098
 C          6.8853992560        2.3711007749       -0.7352561360
 C          7.8897134348        1.4913895771       -0.3604277247
 C          7.5817622923        0.3026291579        0.2846497877
 C          6.2601415084       -0.0133757078        0.5562752219
 H          5.9734705868       -0.9198860762        1.0631636940
 H          8.3656566623       -0.3772022878        0.5769922536
 H          8.9192377357        1.7353622236       -0.5697061193
 H          7.1278719322        3.2961191000       -1.2331115770
 H          4.7478577764        2.7173770562       -0.7317220781
 H          3.7972810135       -0.3103340724       -1.6216501879
 H          2.2513489259       -0.9312169333       -3.2296255052
 H         -0.0624638044       -1.6229820339       -3.7266559693
 H         -1.6595051018       -2.0299597133       -1.8913012518
 H         -0.7615555388       -1.3883299152        1.6929689078
 C         -1.4596708627       -3.2944537124        1.0545076761
 C         -1.0730368375       -4.3860936253        0.1068900809
 C         -0.2988450275       -4.1900075956        1.3734117223
 H         -0.4054474494       -4.9133606531        2.1675171470
 H          0.6896151124       -3.7610736649        1.2955694858
 H         -1.7368232450       -5.2332113576        0.0273890572
 H         -0.6043222811       -4.1124724852       -0.8248049362
 H         -2.3690558954       -3.4557649505        1.6246515540
