  62
        -98.93211017
 C          1.7265802316        0.1391613372       -0.7982273482
 C          2.8923469360       -0.6602486105       -0.8541020224
 C          4.1755082672        0.0117741881       -0.5439366605
 C          4.1716590163        1.3189689842       -0.2278500348
 C          5.3351278120        2.1914096209        0.1625258533
 C          5.8043234894        1.9430506098        1.6052086718
 C          5.9012219651        0.4732158429        2.0052781938
 H          6.1342703837        0.4342721663        3.0727001524
 H          4.9269473207        0.0000508289        1.8697108783
 C          6.9656684041       -0.3332788821        1.2652442155
 H          7.9435807084        0.1225786850        1.4359738904
 H          6.9832946909       -1.3318098658        1.7095951878
 C          6.7588038069       -0.4892323028       -0.2428201706
 H          7.4400806190       -1.2740304792       -0.5847143935
 H          7.0413670719        0.4159025549       -0.7735495341
 C          5.3551813731       -0.9248442962       -0.6517044041
 H          5.3816321624       -1.2447648199       -1.7005381324
 H          5.0807039785       -1.8227409395       -0.0863430052
 H          6.7743529520        2.4244565559        1.7403825825
 H          5.0915130106        2.4243787143        2.2792250874
 H          6.1531192926        2.0599512312       -0.5395033552
 H          4.9911289925        3.2249530364        0.0823315228
 O          3.0204773959        2.0497624085       -0.1826995597
 C          1.7902357923        1.4933991211       -0.4607803998
 O          0.8351928818        2.2932799288       -0.3855823116
 H         -2.1654719072        0.0407430823       -0.2074149086
 C         -1.6352781017       -0.6563927597        0.4225500453
 C         -0.3177397860       -0.9766497042        0.1313534187
 C          0.3598606347       -1.8527942340        0.9726883688
 C         -0.2761294313       -2.3955991386        2.0743731507
 C         -1.6007086631       -2.0979229853        2.3430733670
 C         -2.2870733145       -1.2249715253        1.5077001654
 N         -3.6289824860       -0.8990327467        1.7448607012
 S         -4.6813891438       -0.7407198389        0.4508758639
 O         -5.9898921741       -0.9932610604        1.0144206685
 O         -4.2878740777       -1.5824155187       -0.6539040108
 C         -4.5689450655        0.9763925167       -0.0021205549
 C         -4.2650974850        1.3261622641       -1.3025966871
 C         -4.1934368445        2.6694300274       -1.6362349476
 C         -4.4277866216        3.6338045409       -0.6685475551
 C         -4.7363572260        3.2659496792        0.6324899172
 C         -4.8088971738        1.9249317022        0.9721815732
 H         -5.0491979780        1.5999365482        1.9707072844
 H         -4.9172132635        4.0200939811        1.3814197236
 H         -4.3681192270        4.6782689624       -0.9309886349
 H         -3.9514070105        2.9569676779       -2.6469166523
 H         -4.0846471207        0.5448165178       -2.0246902210
 H         -4.0541343604       -1.3789145952        2.5245566845
 H         -2.1000978905       -2.5369804846        3.1934887035
 H          0.2607669876       -3.0718023109        2.7227394351
 H          1.3827151773       -2.1133670274        0.7477139642
 C          0.3324553290       -0.3865162105       -1.0931612740
 H         -0.2532855189        0.5038652385       -1.3736712343
 C          0.2860735822       -1.3393504758       -2.2808036291
 C          0.0863772588       -2.8161632148       -2.1542777555
 C         -1.0138596042       -1.9602623877       -2.7019574097
 H         -1.2373968088       -2.0192660938       -3.7568632546
 H         -1.8822249437       -1.8011229299       -2.0779237775
 H          0.6382328887       -3.4552110019       -2.8265701663
 H         -0.0358845921       -3.2315371626       -1.1664831226
 H          0.9464280081       -1.0143605027       -3.0790485316
 O          2.8961389850       -1.8852181024       -1.1390026580
