  62
        -98.93551613
 C          2.3828833246        1.4083551189        0.0028334485
 C          3.1172403733        0.7249022783        1.0045915056
 C          4.0082442532       -0.3627646951        0.5666472250
 C          4.0717474904       -0.6723702825       -0.7414160805
 C          4.9054577264       -1.6915420801       -1.4897138953
 C          5.6594213013       -2.7848314113       -0.7378042654
 C          4.7675747133       -3.8318149792       -0.0705124506
 H          4.2995693254       -4.4371283539       -0.8510781217
 H          5.4010432822       -4.4912298964        0.5265846441
 C          3.6505371568       -3.2827634882        0.8138467606
 H          2.9573223382       -2.6925560774        0.2099127713
 H          3.0845643353       -4.1328850566        1.2049267900
 C          4.1103600894       -2.4443962929        2.0048689804
 H          4.8200907888       -3.0171998338        2.6049290022
 H          3.2311714155       -2.2453110768        2.6238525303
 C          4.7463520049       -1.0887502714        1.6542311081
 H          5.7972220814       -1.1999000606        1.3983142854
 H          4.6888951525       -0.4505284658        2.5407508712
 H          6.3384194080       -2.3434130453       -0.0143433206
 H          6.2768180420       -3.3020153125       -1.4772652353
 H          4.2285631559       -2.1562324322       -2.2140671158
 H          5.6281646284       -1.1106408227       -2.0734909413
 O          3.3376140563        0.0048590283       -1.6707368273
 C          2.4756093681        1.0402225637       -1.3378171181
 O          1.8773390707        1.5198132374       -2.3201499102
 O          3.0441601156        1.0265797425        2.2258346096
 C          1.4817693935        2.5393503620        0.4693634519
 C          0.0791004347        2.0373244607        0.6977173965
 C         -0.5525156666        2.1958822541        1.9250586594
 C         -1.8297206214        1.7017486290        2.1284020271
 C         -2.5015921347        1.0429418843        1.1143977955
 C         -1.8763307749        0.8742449903       -0.1143276671
 C         -0.5978133397        1.3712017686       -0.3155804915
 H         -0.1142257997        1.2350407889       -1.2723385881
 N         -2.5513611778        0.2021683024       -1.1535536921
 S         -3.0356711227       -1.3753769135       -0.8257244868
 O         -2.1745399089       -1.9978442910        0.1545943294
 O         -3.1221168722       -2.0282957233       -2.1138211829
 C         -4.6768442137       -1.1784030093       -0.1640945092
 C         -4.9812367232       -1.6760383760        1.0876911179
 C         -6.2674195133       -1.5120412553        1.5786486220
 C         -7.2203904820       -0.8578339205        0.8129938261
 C         -6.8988393461       -0.3661136086       -0.4436016745
 C         -5.6155511826       -0.5274718230       -0.9407657272
 H         -5.3241390085       -0.1642860206       -1.9121510838
 H         -7.6425481196        0.1419639046       -1.0360181841
 H         -8.2198087935       -0.7304138188        1.1979323587
 H         -6.5192223641       -1.8938484559        2.5550006489
 H         -4.2049498482       -2.1714948912        1.6487540886
 H         -2.0439595658        0.2282541341       -2.0276364865
 H         -3.4954346029        0.6547164917        1.2668106280
 H         -2.3070977931        1.8298775502        3.0877595912
 H         -0.0279258477        2.6935327977        2.7274457836
 H          1.8909692958        2.8303783897        1.4496060009
 C          1.5465226550        3.7647785539       -0.4326334073
 C          0.3941726349        4.2645069723       -1.2468734700
 C          0.8330335338        5.0225857982       -0.0325593175
 H          1.3365743000        5.9684188620       -0.1618758005
 H          0.1987988376        4.9728070820        0.8397221916
 H          0.6139568566        4.6687161842       -2.2233373234
 H         -0.5394446027        3.7265637012       -1.2013560393
 H          2.5294803793        3.8845321061       -0.8772060698
