  62
        -98.93805737
 C         -2.0523602699       -0.3630901535       -0.2133966752
 C         -3.0684353249       -0.7598814798        0.6908452436
 C         -4.2512384732        0.1112441294        0.7780753507
 C         -4.2991589977        1.2309964949        0.0364819469
 C         -5.3772151412        2.2851080984       -0.0033069889
 C         -6.8357894321        1.8070178599       -0.0143904862
 C         -7.0782195789        0.4762465490       -0.7415575557
 H         -7.8926966607        0.6061959604       -1.4566285900
 H         -6.1899505881        0.1920328543       -1.3083042402
 C         -7.4637063543       -0.6609871423        0.2076292101
 H         -8.1792655932       -0.2787039577        0.9388967975
 H         -7.9690371527       -1.4414780981       -0.3663240643
 C         -6.3001731656       -1.3227806495        0.9449144622
 H         -5.6992728876       -1.9052787476        0.2413912531
 H         -6.7176450072       -2.0268790376        1.6686591897
 C         -5.3523684469       -0.3629626070        1.6824645855
 H         -5.8972553640        0.4682259920        2.1233305695
 H         -4.8638383109       -0.9234835267        2.4840416475
 H         -7.1994407651        1.7232949763        1.0087974307
 H         -7.4214763048        2.5946648869       -0.4915323663
 H         -5.2269905146        2.9566454958        0.8471804596
 H         -5.1746540770        2.8636211977       -0.9079378546
 O         -3.2884922719        1.5875227377       -0.8047875309
 C         -2.1497695578        0.8112180913       -0.9578647474
 O         -1.3314035085        1.2731260162       -1.7762098777
 H          1.0963926410        0.3362827545       -1.5098398010
 C          1.2261009938        0.2543299062       -0.4424857633
 C          0.3452260383       -0.5144643618        0.3026738977
 C          0.5205705475       -0.5811815754        1.6822290831
 C          1.5444593975        0.1128355614        2.2992628090
 C          2.4128771643        0.8918439721        1.5547643964
 C          2.2446550477        0.9663630514        0.1783710604
 N          3.1154862711        1.7617218959       -0.5830433998
 S          4.7538941437        1.6834036609       -0.2684381364
 O          5.0681486488        2.4842256904        0.8890869153
 O          5.3976503195        2.0777512246       -1.5017744830
 C          5.0769723879       -0.0359934705        0.0825861620
 C          5.5204313707       -0.4152700300        1.3328931697
 C          5.7308370109       -1.7607829446        1.5898168197
 C          5.4923785121       -2.6986059871        0.5975859050
 C          5.0505580912       -2.3013089145       -0.6553779152
 C          4.8383787977       -0.9578973006       -0.9175451375
 H          4.5008799060       -0.6145375757       -1.8822405809
 H          4.8677093279       -3.0326724764       -1.4261849545
 H          5.6527499148       -3.7458292803        0.7999703916
 H          6.0764343758       -2.0723543466        2.5623330871
 H          5.6936084485        0.3465710121        2.0753408271
 H          2.9166497121        1.7609143502       -1.5719930424
 H          3.2051102778        1.4557108028        2.0197844384
 H          1.6667174553        0.0522131850        3.3699557721
 H         -0.1681481160       -1.1751747791        2.2663188442
 C         -0.8168274273       -1.2413631708       -0.3271252557
 H         -1.0355940837       -2.1251128638        0.2870665822
 C         -0.5604765904       -1.6899090798       -1.7505666462
 C          0.3918604053       -2.8197550366       -2.0007510210
 C         -1.0793726503       -3.0210297559       -2.2016563102
 H         -1.4565533949       -3.1113820299       -3.2094533535
 H         -1.6174707386       -3.6184364865       -1.4803586793
 H          0.8527718943       -3.2794857278       -1.1398769121
 H          1.0267951690       -2.7759137674       -2.8722769094
 H         -0.5905906844       -0.8810072761       -2.4701474950
 O         -2.9886231016       -1.7971740404        1.4006187980
