  62
        -98.93935305
 C         -1.1622088625       -1.3159377922       -0.1972960404
 C         -2.1948107562       -1.1975848207        0.7685134253
 C         -3.0630908488       -0.0169172385        0.6604753187
 C         -2.8247223472        0.8799419198       -0.3133495298
 C         -3.6667606056        2.0886528632       -0.6099046899
 C         -4.9471940764        1.6656338970       -1.3584466437
 C         -6.2409435280        1.9009096549       -0.5786357979
 H         -6.4781165589        2.9667824731       -0.5966549070
 H         -7.0408545925        1.3774621322       -1.1068204227
 C         -6.2307201825        1.4483014800        0.8847589119
 H         -7.2703974445        1.4302627010        1.2186788559
 H         -5.7216152646        2.1942842122        1.4968267558
 C         -5.6020366647        0.0759954716        1.1591419737
 H         -5.6411294174       -0.5505715138        0.2677465112
 H         -6.1998384710       -0.4237972671        1.9241660043
 C         -4.1548886088        0.1273757209        1.6842071027
 H         -4.0057046332        1.0501107613        2.2514962161
 H         -4.0047404111       -0.7090880093        2.3730160512
 H         -5.0144153689        2.2097564344       -2.3017366556
 H         -4.8620303934        0.6070396680       -1.6124446048
 H         -3.9193412484        2.5996139485        0.3166701382
 H         -3.0717959878        2.7578992215       -1.2313465919
 O         -1.8149338254        0.7430562207       -1.2080313023
 C         -0.9550997885       -0.3434557695       -1.1756749592
 O         -0.0818388401       -0.3125721965       -2.0641520839
 H          1.8622328387       -1.3710967207       -1.3621386641
 C          2.0381515016       -1.4955890313       -0.3052570590
 C          1.0677653890       -2.0923333038        0.4866673617
 C          1.3025011860       -2.2040418402        1.8532712256
 C          2.4783718638       -1.7332537096        2.4101006324
 C          3.4376533375       -1.1254015552        1.6188297647
 C          3.2038910505       -0.9973124510        0.2564638465
 N          4.1473529154       -0.3213207441       -0.5517686204
 S          4.3334934030        1.3041477031       -0.1842001023
 O          4.9695690191        1.8966280741       -1.3388324267
 O          5.0502839107        1.4169081415        1.0613117095
 C          2.6771305621        1.9371621861        0.0113667871
 C          1.9963156002        2.3726378740       -1.1071546234
 C          0.6939500973        2.8220350626       -0.9670649639
 C          0.0928000126        2.8122732234        0.2814891980
 C          0.7855605640        2.3605486557        1.3936928654
 C          2.0922543511        1.9205339441        1.2616176223
 H          2.6665355229        1.5728456790        2.1045263792
 H          0.3100119209        2.3462976765        2.3615106802
 H         -0.9245522004        3.1549759019        0.3885277392
 H          0.1478617518        3.1611255359       -1.8325380981
 H          2.4956452956        2.3630607769       -2.0627990212
 H          3.9363012156       -0.4064858396       -1.5371062870
 H          4.3484855054       -0.7272121108        2.0360590308
 H          2.6475832288       -1.8335067829        3.4714945715
 H          0.5430635178       -2.6494938190        2.4797400247
 C         -0.2527045556       -2.5311966718       -0.0956305384
 H         -0.7387709653       -3.1949065763        0.6313872816
 C         -0.1075204780       -3.2752480696       -1.4069764791
 C          0.4441436897       -4.6685279568       -1.3939116307
 C         -1.0064807642       -4.4394389545       -1.6916510377
 H         -1.3558311106       -4.5848234076       -2.7029502433
 H         -1.7311811496       -4.7091990082       -0.9373941958
 H          0.7041516701       -5.0923822230       -0.4357648358
 H          1.0934867552       -4.9741428616       -2.1999526172
 H          0.1503905994       -2.6387908109       -2.2434753363
 O         -2.3835320414       -2.0475850411        1.6791029908
