  62
        -98.94464408
 C         -2.0780570988       -0.3385762118       -0.1846254883
 C         -3.0578994014       -0.8883668882        0.6791373856
 C         -4.2525217709       -0.0660006908        0.9073731123
 C         -4.3346269742        1.1470072890        0.3307998098
 C         -5.5147876246        2.0678988296        0.4370564556
 C         -6.5140099610        1.8242574165       -0.7027631470
 C         -6.8808362482        0.3532871435       -0.8995920580
 H         -7.6129249655        0.3065553114       -1.7087063308
 H         -5.9961563400       -0.1928231127       -1.2348529940
 C         -7.4546506120       -0.3305392330        0.3492335548
 H         -7.7940548437        0.4227390286        1.0611253845
 H         -8.3283024100       -0.9170176704        0.0570643753
 C         -6.4881135842       -1.2886463830        1.0478012920
 H         -6.0747869671       -1.9886931279        0.3174204951
 H         -7.0562237725       -1.8732680730        1.7762457029
 C         -5.3231424512       -0.6309206286        1.7981220722
 H         -5.7068981965        0.1363068841        2.4736463877
 H         -4.8355454761       -1.4045476866        2.3984569772
 H         -7.4171996389        2.4024082515       -0.4990823768
 H         -6.0756964219        2.1952557085       -1.6321905284
 H         -6.0011607186        1.9176463451        1.3989663270
 H         -5.1545809462        3.0964541244        0.3791295675
 O         -3.3591195806        1.6568509105       -0.4624572459
 C         -2.2108087024        0.9308236234       -0.7474225156
 O         -1.4128143265        1.5196793060       -1.5012085971
 O         -2.9382088656       -2.0146507392        1.2309535573
 C         -0.8258226928       -1.1554147128       -0.4594678153
 C          0.3448686685       -0.4671577411        0.1966179337
 C          0.4982656597       -0.5735852594        1.5767489996
 C          1.5274864355        0.0802605072        2.2268003364
 C          2.4253606692        0.8570410090        1.5152040702
 C          2.2814430969        0.9682998672        0.1388317168
 C          1.2547815328        0.2982319526       -0.5152584166
 H          1.1481361413        0.4074000628       -1.5826572360
 N          3.1879992501        1.7551117287       -0.5884879463
 S          4.8163875616        1.6291982217       -0.2378528831
 O          5.1290936847        2.4191334020        0.9274602633
 O          5.4974330073        2.0072108625       -1.4562981714
 C          5.0845953664       -0.0991272911        0.1170912663
 C          5.5293727670       -0.4863519447        1.3645100183
 C          5.7027789570       -1.8363401792        1.6253355401
 C          5.4264440574       -2.7707983889        0.6397672382
 C          4.9835096486       -2.3656913151       -0.6102825909
 C          4.8091147776       -1.0176344420       -0.8766460382
 H          4.4718104710       -0.6695724925       -1.8396563284
 H          4.7709055022       -3.0944349152       -1.3759548704
 H          5.5577883959       -3.8214548548        0.8452868960
 H          6.0490540948       -2.1539416982        2.5956625985
 H          5.7312511194        0.2732235421        2.1021192475
 H          3.0123665861        1.7804008623       -1.5814378858
 H          3.2227642396        1.3906316351        2.0064697753
 H          1.6313720362       -0.0098864425        3.2973652887
 H         -0.2118406055       -1.1685908717        2.1339267239
 H         -0.9882199022       -2.1124236407        0.0547649302
 C         -0.6389749848       -1.4224184868       -1.9377188664
 C          0.2936971810       -2.5107442316       -2.3757075174
 C         -1.1868547649       -2.6865844703       -2.5261298349
 H         -1.6145064056       -2.6494025812       -3.5169951302
 H         -1.6918083028       -3.3701531546       -1.8594562965
 H          0.8849724047       -2.3578152219       -3.2656134157
 H          0.7934038547       -3.0754444036       -1.6035825517
 H         -0.7024865358       -0.5284558125       -2.5464848950
