  62
        -98.94313208
 C         -2.6556558603       -0.0567955318        0.1278044701
 C         -2.1634743811        0.7403869988       -0.9357358199
 C         -1.9408376119        2.1597544888       -0.6204100195
 C         -2.1806214819        2.6246872484        0.6176875406
 C         -2.0376673427        4.0502017883        1.0789127210
 C         -0.6083255429        4.4425935792        1.4746034807
 C          0.3607754367        4.6259382201        0.3063793206
 H         -0.0843540239        5.2903637300       -0.4351632892
 H          1.2487042765        5.1236066005        0.7011569005
 C          0.7927112674        3.3163526605       -0.3675018099
 H          0.5942247881        2.4706524102        0.2957528300
 H          1.8731353174        3.3278514413       -0.5348925401
 C          0.1389608273        3.0410025205       -1.7218512098
 H          0.4803607278        2.0584236608       -2.0591435301
 H          0.4745916766        3.7844771909       -2.4496024597
 C         -1.3949232927        3.0393021295       -1.7048562894
 H         -1.7697030834        4.0571430892       -1.5910504791
 H         -1.7443832627        2.6407534195       -2.6609246895
 H         -0.6691147034        5.3863448690        2.0218002810
 H         -0.2139827222        3.6844056492        2.1552674305
 H         -2.3985955133        4.7233268683        0.3004486312
 H         -2.6798037926        4.1556491077        1.9561378912
 O         -2.6307710812        1.8236832978        1.6201441705
 C         -2.8549332604        0.4761043277        1.4044652802
 O         -3.2505060297       -0.1407824528        2.4160092902
 O         -1.9313614611        0.3227651592       -2.1014679500
 C         -2.9265932694       -1.5493853019        0.0216971097
 C         -1.6865805588       -2.3349022213        0.3815290392
 C         -1.7597730579       -3.4390169015        1.2231261990
 C         -0.6162201474       -4.1331746209        1.5748774285
 C          0.6230732022       -3.7229136200        1.1179035883
 C          0.7053563513       -2.6231599597        0.2716620086
 C         -0.4478385792       -1.9548022103       -0.1114344710
 H         -0.3630960799       -1.1100783401       -0.7778035908
 N          1.9431538609       -2.1633573988       -0.2069807216
 S          2.1363960298       -0.4819625686       -0.2944892312
 O          1.4718040397        0.1446172906        0.8254541791
 O          1.7612607893       -0.0433149185       -1.6133562510
 C          3.9068748698       -0.3525292976       -0.1163047916
 C          4.7020354997       -0.5969871668       -1.2203612618
 C          6.0794792197       -0.5404768059       -1.0798241621
 C          6.6360926598       -0.2416405559        0.1551198378
 C          5.8255371099        0.0053951433        1.2528634781
 C          4.4468201099       -0.0520290075        1.1195549384
 H          3.7760442700        0.1382059818        1.9421758286
 H          6.2605423900        0.2416327133        2.2105730780
 H          7.7083628998       -0.1979885752        0.2621080376
 H          6.7123509196       -0.7286331553       -1.9319690223
 H          4.2225978996       -0.8154140068       -2.1603420218
 H          2.7297345413       -2.6077079484        0.2474628781
 H          1.5201265926       -4.2447571295        1.4150789380
 H         -0.6871631467       -4.9876045011        2.2306129283
 H         -2.7187501076       -3.7379157022        1.6194243091
 H         -3.6882352891       -1.7713670326        0.7833465499
 C         -3.4564300194       -1.9969955319       -1.3262906403
 C         -4.2943434987       -3.2362892624       -1.4076763504
 C         -4.9225325296       -1.8913694228       -1.6139460599
 H         -5.2301362000       -1.6066487227       -2.6086239997
 H         -5.5565641796       -1.4988310834       -0.8320147296
 H         -4.1706349084       -3.8827035921       -2.2627468406
 H         -4.5111311581       -3.7585176228       -0.4883408505
 H         -2.7741933298       -1.7937861213       -2.1411185104
