  62
        -98.93840811
 C          2.2345595147        0.9200219024        0.2079770887
 C          1.5968949318        0.2296203833       -0.8509646978
 C          2.0266726233       -1.1607146574       -1.0602073123
 C          2.9499091001       -1.6976071480       -0.2433728239
 C          3.4869474342       -3.0955510479       -0.3486658397
 C          2.6928847974       -4.0824407822        0.5162782054
 C          1.1789198580       -4.0012048630        0.3201946280
 H          0.7288035426       -4.7823120221        0.9380145707
 H          0.8107884321       -3.0464141959        0.7035173783
 C          0.7141678830       -4.1679905046       -1.1332499750
 H          1.5000728418       -4.6391551312       -1.7257275381
 H         -0.1493692619       -4.8364904563       -1.1457697513
 C          0.2764542356       -2.8624859177       -1.8003106251
 H         -0.3978487120       -2.3302856099       -1.1247364842
 H         -0.2852546563       -3.1107153458       -2.7050300322
 C          1.4082120124       -1.9094223292       -2.2072208787
 H          2.1705030107       -2.4592680030       -2.7641507231
 H          0.9826463065       -1.1475125991       -2.8667228773
 H          3.0370262477       -5.0932661816        0.2870264743
 H          2.9124534735       -3.8792067719        1.5672091960
 H          3.4581183879       -3.4080268900       -1.3909489837
 H          4.5250891746       -3.0866703999       -0.0104663377
 O          3.4997179768       -1.0199767527        0.7986516662
 C          3.1461100372        0.2931101633        1.0550974555
 O          3.7086609296        0.7931896936        2.0538505399
 H          0.3535076823        1.0448647819        2.0392455205
 C         -0.2403789398        1.6933770355        1.4049500103
 C          0.4091898084        2.5343338544        0.5018808189
 C         -0.3846825587        3.3482700067       -0.2955344490
 C         -1.7674104884        3.2953643812       -0.2127446897
 C         -2.3990968976        2.4114457757        0.6404786941
 C         -1.6177402822        1.6021721128        1.4532939069
 N         -2.2593762944        0.6072511108        2.2510531422
 S         -2.1861393096       -0.8804369263        1.4448613398
 O         -2.8807247202       -1.8237211406        2.2966769624
 O         -0.8205974102       -1.2347932081        1.1226453142
 C         -3.1345983583       -0.5595534701       -0.0220398583
 C         -4.5045984401       -0.7264805709        0.0437870971
 C         -5.2700828540       -0.4312176487       -1.0722026174
 C         -4.6544440677        0.0289027670       -2.2269823492
 C         -3.2788698683        0.1931600302       -2.2741073612
 C         -2.5044339710       -0.1001156525       -1.1617110104
 H         -1.4327702634        0.0322755204       -1.1724401312
 H         -2.7958246104        0.5555072910       -3.1672360100
 H         -5.2498313194        0.2625921584       -3.0955994507
 H         -6.3403006211       -0.5569355654       -1.0376621944
 H         -4.9337464565       -1.0883577458        0.9636851669
 H         -1.8126246303        0.4855262714        3.1512533017
 H         -3.4729970701        2.3306833463        0.6810131562
 H         -2.3585018136        3.9355626359       -0.8491860697
 H          0.0526477660        4.0132971485       -1.0172504762
 C          1.9111094906        2.3849616397        0.4965612605
 H          2.2481647040        2.5543025848        1.5336474535
 C          2.8133662417        3.2465487329       -0.3741067272
 C          2.5399448310        3.6184723678       -1.7975715069
 C          2.5749882092        4.6811086868       -0.7376918758
 H          3.4277718965        5.3438999427       -0.7210168541
 H          1.6589329350        5.1526728093       -0.4232081613
 H          3.3635825585        3.5678269447       -2.4952427059
 H          1.6001748374        3.3110750961       -2.2260638386
 H          3.8469827142        2.9892716547       -0.1492911790
 O          0.7277782197        0.7460315660       -1.5981364074
