  62
        -98.94018898
 C         -1.8898376128       -1.3774930556        0.2532108987
 C         -1.6998140843       -0.0077965812       -0.0336843812
 C         -2.8511204269        0.8854438178        0.2040865577
 C         -3.9977647893        0.3537791723        0.6672235484
 C         -5.3002638402        1.0629154793        0.9190892457
 C         -6.0734161553        1.3504088268       -0.3815990308
 C         -5.2140021693        1.7890528928       -1.5660071927
 H         -5.8516350266        1.7980588928       -2.4541439488
 H         -4.4338119475        1.0449639832       -1.7386564272
 C         -4.5786443684        3.1715258086       -1.4363355776
 H         -5.3701920653        3.9232418668       -1.3882559646
 H         -4.0026032099        3.3537242415       -2.3473148895
 C         -3.6564264250        3.3732993169       -0.2343633962
 H         -4.2351910428        3.4455529567        0.6824593320
 H         -3.1588941001        4.3388905797       -0.3656687956
 C         -2.5468176031        2.3353118623       -0.0862812082
 H         -1.8729003781        2.6656545953        0.7141814339
 H         -1.9393632010        2.3301163478       -0.9983047703
 H         -6.8290508288        2.1101729884       -0.1762737011
 H         -6.5889973198        0.4324185947       -0.6734901952
 H         -5.9055412096        0.4031957871        1.5442964780
 H         -5.1197872406        1.9760442531        1.4787829493
 O         -4.1363589354       -0.9774994473        0.9265299845
 C         -3.0997221890       -1.8704097481        0.7394561487
 O         -3.3685939290       -3.0510120407        1.0409143147
 H          1.8497734802       -1.9043302589       -0.8197278529
 C          1.7039065222       -1.7454102214        0.2350461487
 C          0.4594369510       -1.9245137723        0.8170488829
 C          0.3249540896       -1.7030747403        2.1862257886
 C          1.4044850372       -1.3015817225        2.9478596011
 C          2.6413867977       -1.1023019154        2.3584359236
 C          2.7880243003       -1.3250153822        0.9955799828
 N          4.0379692543       -1.1548098115        0.3700854394
 S          4.1834627482       -0.1011220043       -0.9242837207
 O          3.3298428800       -0.5245560331       -2.0025895600
 O          5.6022885473       -0.0685427920       -1.2078619394
 C          3.6758853500        1.4824650370       -0.2778726315
 C          2.3323191181        1.7672081749       -0.1405009119
 C          1.9667945604        2.9800326587        0.4242118326
 C          2.9367927981        3.8778897848        0.8406054513
 C          4.2823345744        3.5737882173        0.6960900672
 C          4.6569280032        2.3637896731        0.1361338422
 H          5.6898461431        2.0866592955       -0.0006577502
 H          5.0369044425        4.2731322802        1.0186207904
 H          2.6421801887        4.8188961083        1.2782067636
 H          0.9176035276        3.2053304404        0.5320009311
 H          1.5841504425        1.0615410041       -0.4652958947
 H          4.7943411046       -0.9838457272        1.0183705924
 H          3.4859380938       -0.7820125925        2.9497352060
 H          1.2827022827       -1.1350601764        4.0075245800
 H         -0.6447016699       -1.8503665086        2.6431679383
 C         -0.7543365845       -2.3607930143        0.0335524381
 H         -1.1002220816       -3.3207465195        0.4443519924
 C         -0.4914185980       -2.5346025374       -1.4475806398
 C          0.0996010478       -3.8120057637       -1.9607269993
 C         -1.3392682837       -3.4903628995       -2.2292993448
 H         -1.6302420815       -3.2202557233       -3.2334639693
 H         -2.0970039695       -4.0377190527       -1.6871684598
 H          0.3202179925       -4.5854899463       -1.2405447181
 H          0.8009734954       -3.7602691975       -2.7800970188
 H         -0.2028141253       -1.6104780602       -1.9363638926
 O         -0.6176658829        0.4596103421       -0.4753307438
