  62
        -98.94442756
 C         -1.9347918542       -1.0756564531       -0.2154777844
 C         -2.4365720682        0.0832857248       -0.8546917428
 C         -3.8937182645        0.2688437736       -0.7856038136
 C         -4.6489689931       -0.6559875870       -0.1652568567
 C         -6.1349046842       -0.5637948845        0.0239352025
 C         -6.4830218466        0.1242310325        1.3514368947
 C         -5.7356123818        1.4379106157        1.5809693985
 H         -6.0826650345        1.8476721222        2.5319910137
 H         -4.6692784020        1.2278853131        1.6912613861
 C         -5.9317274269        2.4819073416        0.4728539205
 H         -6.1189274675        3.4530758025        0.9358140306
 H         -6.8116069514        2.2314776383       -0.1209139557
 C         -4.7277555454        2.6560923200       -0.4550170352
 H         -4.8871262982        3.5571499232       -1.0534403321
 H         -3.8244854587        2.8148109091        0.1398572198
 C         -4.4638593642        1.5011189767       -1.4293904220
 H         -5.3785200122        1.2641831624       -1.9768007007
 H         -3.7106086216        1.8385039833       -2.1475986089
 H         -6.2369010191       -0.5570447443        2.1691786416
 H         -7.5588831498        0.3069280388        1.3736133871
 H         -6.5684338475       -0.0125875288       -0.8081447463
 H         -6.5443141007       -1.5753434361        0.0307740930
 O         -4.1316205676       -1.7706009338        0.4118992598
 C         -2.7659493107       -2.0018133339        0.4142454750
 O         -2.4203316763       -3.0469903741        1.0013879261
 H          1.7141649571        0.0869217136       -1.2137080904
 C          1.3698443220        0.4314478664       -0.2536291615
 C          0.2973647193       -0.1772210392        0.3777821080
 C         -0.1163891659        0.3166390752        1.6132677602
 C          0.5096938800        1.4056421722        2.1858464851
 C          1.5742302022        2.0176871078        1.5466193195
 C          2.0029215909        1.5273589943        0.3200564862
 N          3.0730921068        2.1363610712       -0.3549928780
 S          4.2702947012        1.2011939733       -1.0510530750
 O          5.3716911060        2.1163946066       -1.2538405290
 O          3.7723492958        0.5348890559       -2.2264396856
 C          4.6887499310        0.0137441312        0.2116614630
 C          5.4655092586        0.4383453686        1.2722869874
 C          5.7462794194       -0.4509172277        2.2963462631
 C          5.2404960149       -1.7413155638        2.2470699504
 C          4.4641906879       -2.1522614583        1.1748542747
 C          4.1831452639       -1.2681212992        0.1449594044
 H          3.5874142345       -1.5518799878       -0.7066772263
 H          4.0739836571       -3.1569379946        1.1368446592
 H          5.4548361006       -2.4325203398        3.0468724254
 H          6.3545265586       -0.1366294422        3.1291059088
 H          5.8484687923        1.4459874535        1.2679133325
 H          3.4705341526        2.9305910607        0.1248963636
 H          2.0595907284        2.8751056711        1.9874326617
 H          0.1690516881        1.7823331036        3.1386215307
 H         -0.9494699169       -0.1611713131        2.1114368982
 C         -0.4415374453       -1.3523273903       -0.2141667741
 H         -0.2948774092       -2.2198318348        0.4459165402
 C          0.0174393536       -1.7211163960       -1.6092644832
 C          1.1581780755       -2.6726150622       -1.8027067616
 C         -0.2415663755       -3.1069419056       -2.1159920763
 H         -0.5272246772       -3.2328834100       -3.1495531394
 H         -0.7261175596       -3.7978107596       -1.4411609494
 H          1.8415587886       -2.4990144933       -2.6211647232
 H          1.6187269949       -3.0831345500       -0.9165937745
 H         -0.0946632516       -0.9069092357       -2.3166064733
 O         -1.7094190714        0.9216086967       -1.4487861998
