  62
        -98.94360338
 C          1.5742853599        1.4512030785        0.0412937105
 C          2.1120319439        0.5241625222        0.9665284661
 C          3.1136511254       -0.4045061267        0.4317176850
 C          3.4686835292       -0.3300018978       -0.8637932628
 C          4.4726756193       -1.2118302449       -1.5555846187
 C          3.8944826713       -2.5507039119       -2.0355125163
 C          3.5892082902       -3.5649523575       -0.9318652859
 H          3.4001283624       -4.5221701786       -1.4219981594
 H          4.4708854802       -3.6907166495       -0.3027551393
 C          2.3772125730       -3.2103091469       -0.0581084978
 H          1.7479646484       -4.0944508495        0.0662158279
 H          1.7700945919       -2.4568361240       -0.5663074856
 C          2.7308655408       -2.7010497999        1.3393740476
 H          3.2158587493       -3.4975867686        1.9074931962
 H          1.8033189595       -2.4320360864        1.8497763211
 C          3.6424479647       -1.4674828557        1.3464388831
 H          3.6570544349       -1.0578376900        2.3591819297
 H          4.6581941513       -1.7438985799        1.0655664322
 H          4.6249457551       -2.9958172349       -2.7150952530
 H          2.9863445933       -2.3526887210       -2.6103673970
 H          5.3196951491       -1.3953197020       -0.8941117786
 H          4.8263562647       -0.6577276939       -2.4277354130
 O          2.9430458690        0.5896357704       -1.7173053723
 C          1.9684755584        1.4863196187       -1.2962166826
 O          1.5441179938        2.2396021674       -2.1928123040
 O          1.7655415492        0.4722260408        2.1757914412
 C          0.5083297332        2.4132377471        0.5215807199
 C         -0.8129125036        2.1885605037       -0.1743068968
 C         -1.7667476516        3.1953804492       -0.2792209279
 C         -2.9960568037        2.9497998893       -0.8661915860
 C         -3.3042048821        1.6975284608       -1.3669738271
 C         -2.3575621560        0.6881886716       -1.2737625427
 C         -1.1325391188        0.9321449558       -0.6712219931
 H         -0.4093361685        0.1293073828       -0.5918428905
 N         -2.6802777422       -0.6036564692       -1.7606424297
 S         -3.6397652424       -1.4963381557       -0.7136489793
 O         -3.7624402731       -2.8101090400       -1.3022063027
 O         -4.8640299489       -0.7719125909       -0.4922481324
 C         -2.6861127293       -1.5840108986        0.7901963510
 C         -2.6987761959       -0.5056267031        1.6528991521
 C         -1.8693955492       -0.5291683331        2.7627335269
 C         -1.0500949725       -1.6233099744        2.9922786383
 C         -1.0571054768       -2.7022600671        2.1214626739
 C         -1.8731455831       -2.6794266448        1.0020669575
 H         -1.9029237399       -3.4931794658        0.2948618158
 H         -0.4249248156       -3.5563270773        2.3066259058
 H         -0.3969934733       -1.6285593118        3.8505708515
 H         -1.8552673996        0.3094983255        3.4398699819
 H         -3.3539949149        0.3251969508        1.4459419943
 H         -1.8627374699       -1.1517381755       -1.9906699422
 H         -4.2603298119        1.4818026732       -1.8145873454
 H         -3.7233340904        3.7441155155       -0.9357961507
 H         -1.5447970637        4.1780148634        0.1042977661
 H          0.3659651743        2.1740026951        1.5872470990
 C          0.9910033032        3.8465979420        0.4079985268
 C          0.6306405482        4.8613509326        1.4507261966
 C          2.0309534673        4.3352621617        1.3703092307
 H          2.8107748079        4.9846759222        1.0019775271
 H          2.3623922865        3.6449117963        2.1323482963
 H          0.4486561896        5.8786030841        1.1378544532
 H          0.0195783020        4.5364122430        2.2793373064
 H          1.0703283903        4.1760058793       -0.6218711710
