  62
        -98.94608368
 C          0.9732625952        1.6437394251        0.6224993468
 C          1.7500871111        1.5474603597       -0.5568684691
 C          2.8753174140        0.6030175927       -0.5054075557
 C          3.0870297099       -0.1115655607        0.6147802059
 C          4.2004018888       -1.1012978912        0.7998983027
 C          3.7751143994       -2.5212664031        0.4040724770
 C          3.0695484972       -2.6006198090       -0.9490660972
 H          2.8348998446       -3.6505685532       -1.1331819786
 H          2.1188024545       -2.0656051825       -0.8884954578
 C          3.8902065070       -2.0514794921       -2.1243801990
 H          3.8081996996       -2.7459005586       -2.9630314134
 H          4.9442575715       -1.9998554359       -1.8488009887
 C          3.4349575569       -0.6834095298       -2.6352854331
 H          2.3574453422       -0.6987848915       -2.8184131745
 H          3.9269297028       -0.4979931398       -3.5939216865
 C          3.7510837133        0.5083392350       -1.7228534864
 H          4.8058813356        0.4868404017       -1.4407192540
 H          3.5670380087        1.4228575211       -2.2943111996
 H          3.0946251270       -2.8997749713        1.1680377978
 H          4.6635032874       -3.1552676375        0.3916452183
 H          4.4879653992       -1.0977373230        1.8527939915
 H          5.0538447722       -0.7862498195        0.2021742786
 O          2.2863998368       -0.0289426532        1.7089421654
 C          1.2128456633        0.8462065456        1.7406148123
 O          0.5589461634        0.8207374117        2.8039258769
 O          1.5282950386        2.2254708618       -1.5936293612
 C         -0.1820208441        2.6262774142        0.6862755288
 C         -1.2117705765        2.2822335727       -0.3624959668
 C         -1.7194357779        3.1962257350       -1.2755877085
 C         -2.6754933240        2.8037855483       -2.1967334703
 C         -3.1636423574        1.5106813755       -2.2061527478
 C         -2.6681086560        0.5892755953       -1.2893161003
 C         -1.6878358592        0.9768895931       -0.3917539153
 H         -1.2969157392        0.2586537393        0.3138958403
 N         -3.1414792944       -0.7309014551       -1.2652168720
 S         -3.3754201800       -1.5203626531        0.1942208290
 O         -4.4318107592       -2.4719055836       -0.0815882192
 O         -3.6226803677       -0.5891213795        1.2686619949
 C         -1.8693075918       -2.4290659357        0.4648813626
 C         -1.0433425952       -2.1224128844        1.5269533867
 C          0.0957934933       -2.8856734847        1.7318807440
 C          0.3835219690       -3.9404269392        0.8801795524
 C         -0.4526758273       -4.2317810501       -0.1872789840
 C         -1.5898788978       -3.4709542638       -0.3987245104
 H         -2.2749955694       -3.6739438228       -1.2048915965
 H         -0.2223299565       -5.0505946089       -0.8494693482
 H          1.2621547630       -4.5422195909        1.0514404984
 H          0.7478745114       -2.6407580222        2.5560268794
 H         -1.2902950292       -1.2970456076        2.1782275094
 H         -3.8892008768       -0.9240850877       -1.9156324058
 H         -3.9208200852        1.2117732498       -2.9150975108
 H         -3.0554845841        3.5201282494       -2.9093758293
 H         -1.3638493312        4.2132215666       -1.2721258995
 H         -0.6530054040        2.4805394541        1.6702337083
 C          0.3315532661        4.0481447621        0.5983884224
 C         -0.4474987279        5.1683892988        1.2171038512
 C          0.8360166111        4.7131303616        1.8422903866
 H          1.7022161002        5.3535887281        1.7703271683
 H          0.7865445172        4.1479476455        2.7620268340
 H         -0.4615298701        6.1256801317        0.7183065079
 H         -1.3711987923        4.9177115743        1.7169530538
 H          0.8665890973        4.2425952527       -0.3237841734
