  62
        -98.93424037
 C         -1.9709094885       -0.1297990133        0.9437908676
 C         -3.1971752696       -0.8531336299        0.9971760801
 C         -4.4055668703       -0.1508291704        0.5565703707
 C         -4.3306436512        1.1495318800        0.2253596424
 C         -5.4696494369        2.0191377137       -0.2323410039
 C         -5.7926955588        1.8918921287       -1.7274620441
 C         -6.4783671023        0.5878172294       -2.1377625278
 H         -7.3455430678        0.4184757121       -1.4986939186
 H         -6.8471354274        0.7270981639       -3.1560061947
 C         -5.5649887768       -0.6456457331       -2.1083837908
 H         -5.7041575848       -1.2230757129       -3.0251128880
 H         -4.5210237091       -0.3248459936       -2.0869346664
 C         -5.8151548575       -1.5918646968       -0.9340423608
 H         -6.8156287884       -2.0222126908       -1.0164855013
 H         -5.0916828979       -2.4089723456       -0.9922705154
 C         -5.6786218370       -0.9340248145        0.4450928126
 H         -6.5364969083       -0.2912278814        0.6418951244
 H         -5.6504746542       -1.7219451276        1.2016954246
 H         -6.4534331441        2.7218629224       -1.9885170283
 H         -4.8681409215        2.0126846020       -2.2967902081
 H         -6.3610987497        1.7920161848        0.3535157032
 H         -5.1741254950        3.0507858220       -0.0291155213
 O         -3.1703861269        1.8451117044        0.3148906732
 C         -1.9710604032        1.2442314695        0.6954332249
 O         -1.0377493641        2.0650158849        0.7794928646
 O         -3.2805661535       -2.0405981351        1.4097622171
 C         -0.7324637084       -0.9217327127        1.3592359107
 C          0.5408947269       -0.1552532606        1.5734500949
 C          1.1973973521       -0.2507635993        2.7953885409
 C          2.4124151077        0.3780627609        3.0060146654
 C          2.9998535739        1.1194068431        1.9985212765
 C          2.3528690261        1.2258156075        0.7741803675
 C          1.1426065190        0.5818273200        0.5616612018
 H          0.6411318381        0.7064594181       -0.3865924987
 N          2.9489394258        1.9817406777       -0.2569688927
 S          4.4589464194        1.4861664477       -0.7797528962
 O          5.4345063064        1.7842986470        0.2381110000
 O          4.6565832104        2.1229438162       -2.0622343980
 C          4.3073027142       -0.2792448379       -0.9798275357
 C          4.5839062750       -1.1104384973        0.0873567787
 C          4.3769206717       -2.4730836889       -0.0558585471
 C          3.9009904357       -2.9788393803       -1.2554083984
 C          3.6349279131       -2.1317732737       -2.3200539324
 C          3.8324419539       -0.7674600704       -2.1809791302
 H          3.6393418939       -0.0737015472       -2.9838760758
 H          3.2674159081       -2.5277558549       -3.2529783289
 H          3.7356330215       -4.0389890521       -1.3612588704
 H          4.5842184915       -3.1347750524        0.7696165594
 H          4.9590595142       -0.6798638828        1.0008811931
 H          2.3349278224        2.1325533810       -1.0438988154
 H          3.9448849956        1.6195650791        2.1376884065
 H          2.9023601259        0.2941641654        3.9641193191
 H          0.7448047158       -0.8233836179        3.5924973662
 H         -1.0098229048       -1.3837139998        2.3226545104
 C         -0.5144569651       -2.1132354486        0.4173540980
 C          0.4477370882       -2.1697062990       -0.7268702311
 C          0.7177846069       -2.9613456250        0.5161499438
 H          0.6092988443       -4.0344697076        0.4869157080
 H          1.5123581645       -2.6116790081        1.1582757593
 H          0.1305563460       -2.6962534098       -1.6149796159
 H          1.0902154692       -1.3283799021       -0.9274675998
 H         -1.4442950542       -2.6512575827        0.2763135995
