  62
        -98.93657737
 C         -1.8609098559       -1.1871063479        0.2877608677
 C         -2.4348882330       -0.1595667534        1.0785461160
 C         -3.8470271715        0.1670756660        0.8222330795
 C         -4.5169835215       -0.5131243622       -0.1234921199
 C         -5.9644194411       -0.3866325625       -0.5285025832
 C         -6.5462965076        1.0278698978       -0.6498226738
 C         -5.5562149650        2.0962473676       -1.1361520316
 H         -4.6453370151        1.6228789362       -1.5069713081
 H         -6.0027883808        2.6410706341       -1.9699895427
 C         -5.1951926244        3.1137973997       -0.0512566024
 H         -6.1051398509        3.3925021851        0.4847441428
 H         -4.8086718803        4.0166076315       -0.5304313126
 C         -4.1432654631        2.6529671924        0.9572617805
 H         -3.1650786164        2.5900484569        0.4716725570
 H         -4.0635138201        3.4180814626        1.7335902570
 C         -4.4182205435        1.2974990712        1.6289402199
 H         -3.8877431443        1.2839060222        2.5850974999
 H         -5.4799556652        1.1604845845        1.8195909057
 H         -6.9582825291        1.3367930315        0.3097990231
 H         -7.3846007298        0.9648959340       -1.3456909388
 H         -6.0336579562       -0.8947686030       -1.4933093480
 H         -6.5663178231       -0.9612726915        0.1815395410
 O         -3.9291497440       -1.4972330963       -0.8574791333
 C         -2.6005492888       -1.8568619185       -0.6861051557
 O         -2.2317505986       -2.7709655612       -1.4470432665
 H          0.9859836363        0.7823314593        0.6278213610
 C          1.1012910902        0.2820155879       -0.3226334154
 C          0.4576281140       -0.9266997341       -0.5541701467
 C          0.6022538419       -1.5331003637       -1.7980775810
 C          1.3688069586       -0.9362652585       -2.7819808332
 C          2.0219764832        0.2599322065       -2.5420882363
 C          1.8835234145        0.8750068428       -1.3040428509
 N          2.5382685284        2.0900889970       -1.0274864979
 S          3.4824449678        2.1804528892        0.3528944361
 O          2.6506165908        2.2320719845        1.5267526291
 O          4.3483087686        3.3174791394        0.1301082532
 C          4.4322099475        0.6713132252        0.3232282683
 C          5.5431554566        0.6145097737       -0.4957782461
 C          6.2459932724       -0.5752312318       -0.5917566879
 C          5.8214886327       -1.6857026685        0.1219697034
 C          4.7053351884       -1.6123999764        0.9406780126
 C          4.0004373566       -0.4234418732        1.0440317746
 H          3.1303050441       -0.3232808644        1.6726862481
 H          4.3785068433       -2.4772590341        1.4958697697
 H          6.3642410594       -2.6142993388        0.0429877298
 H          7.1177404297       -0.6343892196       -1.2232454495
 H          5.8441808931        1.5036160013       -1.0258828103
 H          3.0442285199        2.4673617950       -1.8165068070
 H          2.6253889617        0.7211637457       -3.3093389415
 H          1.4651826944       -1.4126085662       -3.7457528120
 H          0.0818002612       -2.4552190439       -1.9995226485
 C         -0.3992116352       -1.5234954243        0.5366668562
 H         -0.1478017929       -1.0084940991        1.4742090639
 C         -0.1552429412       -3.0070145993        0.7229468639
 C          1.0966462035       -3.4526261458        1.4147450994
 C         -0.2284221118       -3.5898934461        2.1010392520
 H         -0.6511514210       -4.5761800210        2.2203037158
 H         -0.4540515614       -2.9182247542        2.9169017879
 H          1.5899658416       -4.3457212084        1.0641016526
 H          1.7670763052       -2.6833020252        1.7667024882
 H         -0.5311098777       -3.6154428181       -0.0886888481
 O         -1.7978514439        0.4503725080        1.9793598705
