  62
        -98.94168669
 C         -2.7706445501       -0.5733256998       -0.3224784507
 C         -2.0729067899        0.3367684304       -1.1539432302
 C         -2.3203678397        1.7634319403       -0.8973670597
 C         -3.2075853197        2.1269397101        0.0448823103
 C         -3.5221036996        3.5415062700        0.4341304708
 C         -2.6358073296        4.0102030494        1.5962001711
 C         -1.1457624997        3.7322669293        1.3935728311
 H         -0.9703532898        2.6531647693        1.4036672008
 H         -0.6182015597        4.1438429989        2.2571975714
 C         -0.5549593895        4.3235510097        0.1063469514
 H          0.4047712706        4.7856592995        0.3466303417
 H         -1.2090837993        5.1082793599       -0.2767821783
 C         -0.2889496095        3.2961628701       -0.9958762889
 H          0.2722222504        2.4557639599       -0.5760670892
 H          0.3410120407        3.7693972003       -1.7544200387
 C         -1.5342965795        2.7530043605       -1.7099384193
 H         -1.2012584295        2.2131819708       -2.6010521794
 H         -2.1675079693        3.5838102907       -2.0281157890
 H         -2.9568743698        3.4976406191        2.5060180609
 H         -2.7902437795        5.0816446794        1.7370020715
 H         -3.3813729794        4.1897810003       -0.4284286189
 H         -4.5670822596        3.5868550000        0.7457766808
 O         -3.9010025999        1.2266443399        0.7872391999
 C         -3.6724511201       -0.1304093501        0.6509213494
 O         -4.3379077103       -0.8392655003        1.4328332591
 H         -0.0263887601       -1.4925421399       -1.1239888707
 C         -0.0505855103       -1.9946522603       -0.1683965909
 C         -1.2696949404       -2.3968739003        0.3582306188
 C         -1.2804246006       -3.0135353108        1.6039603285
 C         -0.1028660407       -3.2078835412        2.3058455286
 C          1.1068877994       -2.7777454612        1.7891762389
 C          1.1244180696       -2.1610675707        0.5460708691
 N          2.3481347297       -1.6586187007        0.0285589994
 S          2.8176094199       -0.2456943810        0.8417650700
 O          3.1606096097       -0.6043657616        2.1949205899
 O          1.8073189900        0.7797597392        0.6939265903
 C          4.2885346400        0.1925137591       -0.0637544797
 C          4.2073738202        1.1295970695       -1.0753973493
 C          5.3487559303        1.4307410096       -1.8021957891
 C          6.5426465702        0.7891715494       -1.5091599692
 C          6.6074570800       -0.1502167510       -0.4906570596
 C          5.4706495299       -0.4546388012        0.2406777502
 H          5.4732522097       -1.1713961515        1.0448424199
 H          7.5380447799       -0.6456701912       -0.2655536297
 H          7.4284242203        1.0245368395       -2.0777824990
 H          5.3010497705        2.1619614600       -2.5930999588
 H          3.2588352003        1.6071748797       -1.2652682092
 H          2.2311770699       -1.4096115803       -0.9474865505
 H          2.0253096994       -2.8843654615        2.3427276989
 H         -0.1295400108       -3.6854930316        3.2737790284
 H         -2.2251787307       -3.3152210808        2.0334982883
 C         -2.5552264603       -2.0810075098       -0.3686267912
 H         -3.3835686304       -2.5185162699        0.2040064985
 C         -2.5826747502       -2.6570537993       -1.7696946514
 C         -2.8256933504       -4.1253431292       -1.9418187720
 C         -3.8829332502       -3.1390272289       -2.3357682218
 H         -4.0772705301       -2.9794012285       -3.3856631617
 H         -4.7610237903       -3.0547564190       -1.7119050518
 H         -2.9877646406       -4.7121295695       -1.0502491223
 H         -2.2928211204       -4.6473117090       -2.7215649022
 H         -1.8955741301       -2.1749085091       -2.4516391712
 O         -1.2796310298        0.0031475306       -2.0755265903
