  62
        -98.93801066
 C         -2.4232996181       -0.4119376273        0.4685731126
 C         -3.2224849889       -0.3649670422       -0.7009286401
 C         -4.3054441629        0.6308831208       -0.6890954259
 C         -4.4546446923        1.4566861866        0.3610503456
 C         -5.4903213704        2.5392203060        0.5002830560
 C         -6.8487322880        2.0410640375        1.0125134517
 C         -7.6669237394        1.2319131456        0.0053117281
 H         -8.6747024515        1.1363395769        0.4144533199
 H         -7.7464157630        1.7898654466       -0.9281636745
 C         -7.1143682490       -0.1721133094       -0.2773635242
 H         -6.4118118423       -0.4523559071        0.5110417374
 H         -7.9310622329       -0.8971136349       -0.2498149086
 C         -6.4224804780       -0.3201539309       -1.6325324226
 H         -7.1503962223       -0.1720423112       -2.4332740133
 H         -6.0383097308       -1.3403675651       -1.7116847713
 C         -5.2509062235        0.6456976864       -1.8524820119
 H         -5.6230525556        1.6546285269       -2.0284223337
 H         -4.6967666947        0.3166340375       -2.7348262547
 H         -7.4311810911        2.9199043764        1.2986057226
 H         -6.6850154461        1.4439966949        1.9126966950
 H         -5.0930321918        3.2575274292        1.2206743365
 H         -5.6240509477        3.0444210457       -0.4566480253
 O         -3.6363363824        1.4105594780        1.4466382599
 C         -2.6256109455        0.4698057237        1.5339028136
 O         -1.9785002721        0.5136705030        2.6006538538
 O         -3.0593119129       -1.0984071355       -1.7081053300
 C         -1.2873262131       -1.4037685437        0.6604047263
 C         -0.0005761367       -0.8486257595        0.1063491205
 C          0.0907832089       -0.4132856952       -1.2122896648
 C          1.2820566697        0.0906947860       -1.7011239681
 C          2.4001235452        0.1783535945       -0.8896015931
 C          2.3188779183       -0.2491291931        0.4283838718
 C          1.1226388151       -0.7617177084        0.9151509744
 H          1.0599047949       -1.0832011112        1.9464641801
 N          3.4442346458       -0.1444472131        1.2617824500
 S          4.9151958853       -0.7328317612        0.7070966676
 O          4.7276058521       -1.8148463613       -0.2310296837
 O          5.6715700470       -1.0396036377        1.9011889479
 C          5.6589670357        0.6638919838       -0.1082000309
 C          5.8149530675        1.8318213702        0.6122782234
 C          6.4008574732        2.9252987182       -0.0049683000
 C          6.8216609830        2.8319198442       -1.3233598367
 C          6.6618061568        1.6508992419       -2.0317297036
 C          6.0752325809        0.5536054854       -1.4204281573
 H          5.9261682830       -0.3831539410       -1.9336194357
 H          6.9904359285        1.5801817794       -3.0561579159
 H          7.2774619754        3.6847254574       -1.8011733347
 H          6.5270808181        3.8453786892        0.5426873818
 H          5.4782743198        1.8628584634        1.6351476653
 H          3.2763037490       -0.4279883822        2.2161286928
 H          3.3289503444        0.5737878556       -1.2670163246
 H          1.3409466327        0.4224369531       -2.7266993980
 H         -0.7803461294       -0.4798463741       -1.8462646639
 H         -1.1655304769       -1.4883097761        1.7522161282
 C         -1.6167910219       -2.7962803174        0.1386307411
 C         -0.9299353531       -3.4407073112       -1.0238206645
 C         -0.6520665174       -3.9229326203        0.3661158642
 H         -1.0370509203       -4.8834546743        0.6735881889
 H          0.3083943481       -3.6751716209        0.7944462763
 H         -1.5296610308       -4.0542408604       -1.6785637400
 H         -0.1545920600       -2.8912770847       -1.5336270576
 H         -2.6691959719       -3.0321115368        0.2593534465
