  62
        -98.94140339
 C          1.2468737410        1.1133675983       -0.0751963087
 C          1.6600242704        0.0410422981        0.7486292614
 C          2.7254638300       -0.8227233224        0.2166744016
 C          3.2041957904       -0.5916799426       -1.0175617883
 C          4.2494133202       -1.3701745831       -1.7769582681
 C          5.5013365498       -1.8150892537       -1.0073804879
 C          5.9500460001       -0.8645829139        0.1124052022
 H          7.0127043402       -0.6483352345       -0.0117737376
 H          5.4131934405        0.0824233963        0.0363303421
 C          5.7513765395       -1.4539089539        1.5110173622
 H          6.4038771096       -0.9259011942        2.2104717723
 H          6.0651151290       -2.4999407640        1.4972883522
 C          4.3296505994       -1.3660137032        2.0646170619
 H          4.0886605499       -0.3263615131        2.3019017819
 H          4.2985218990       -1.9252532932        3.0027568019
 C          3.2248899394       -1.8986044827        1.1373867316
 H          3.5576624990       -2.7755409928        0.5869185717
 H          2.3707859691       -2.1857537923        1.7573166215
 H          6.3022855699       -1.9165529641       -1.7417121177
 H          5.3356291993       -2.8059942036       -0.5864855680
 H          4.5403021807       -0.7199043532       -2.6056446681
 H          3.7644150898       -2.2488047028       -2.2132235983
 O          2.7424348810        0.4250573176       -1.7995871384
 C          1.7567763414        1.2949867181       -1.3591181486
 O          1.4330864420        2.1662419083       -2.1888196986
 O          1.1513724900       -0.1919181017        1.8788077413
 C          0.1550398114        2.0427568188        0.4184598111
 C         -1.0847129385        1.9065911795       -0.4319681991
 C         -1.8999109079        2.9780860299       -0.7752298192
 C         -3.0425832079        2.7731670204       -1.5293761595
 C         -3.4141098084        1.5025713306       -1.9303371396
 C         -2.6083720790        0.4234052802       -1.5860843194
 C         -1.4527793990        0.6363491596       -0.8528886692
 H         -0.8200455095       -0.2064718907       -0.6217587791
 N         -2.9440737396       -0.8883045096       -1.9550621595
 S         -2.6299859604       -2.1346031098       -0.8828889995
 O         -1.2274139705       -2.4681673305       -0.8936917692
 O         -3.5295745108       -3.1917171193       -1.2953006797
 C         -3.1358812604       -1.4997653996        0.7061973604
 C         -4.4911605103       -1.3114933289        0.9027406501
 C         -4.9297744003       -0.7685739488        2.0984686801
 C         -4.0085433603       -0.4175665292        3.0741377903
 C         -2.6537574004       -0.6182924399        2.8644813805
 C         -2.2081263504       -1.1648274801        1.6705237406
 H         -1.1560323604       -1.3207446206        1.4888439508
 H         -1.9289637304       -0.3483372403        3.6161349407
 H         -4.3470508203        0.0126345209        4.0034636602
 H         -5.9839972103       -0.6168948583        2.2649559999
 H         -5.1758139603       -1.6067603986        0.1242604200
 H         -3.8449532295       -0.9899813692       -2.3987188997
 H         -4.3102269184        1.3452088111       -2.5104899097
 H         -3.6603669774        3.6157517807       -1.8000523696
 H         -1.6366202675        3.9741646197       -0.4595605291
 H         -0.0974364690        1.6823652389        1.4280535211
 C          0.6634919821        3.4654652286        0.5232457713
 C          0.1253277023        4.3864415588        1.5762723212
 C          1.5161382420        3.8427126581        1.6966183015
 H          2.3503157924        4.5088849277        1.5352107616
 H          1.7057520715        3.0789106580        2.4368443415
 H          0.0058194328        5.4317382089        1.3343489512
 H         -0.6281916680        3.9969967392        2.2438704910
 H          0.9268307624        3.8838936185       -0.4415470886
