  62
        -98.94844130
 C          1.2756498705        1.5727463897        0.1878780399
 C          1.6745635508        0.6543096299        1.1880135699
 C          2.9200424108       -0.0752480200        0.9308906996
 C          3.5920739605        0.1377415699       -0.2151659906
 C          4.9001016004       -0.4955736400       -0.6054385709
 C          4.7600755004       -1.8856368301       -1.2397328006
 C          4.3883252908       -3.0072818700       -0.2693885304
 H          4.5449047007       -3.9512549701       -0.7952792303
 H          5.0693127910       -2.9915951298        0.5824416294
 C          2.9374690309       -2.9590430501        0.2286428500
 H          2.3349340507       -2.3289444602       -0.4303602999
 H          2.4977119510       -3.9581017601        0.1775971202
 C          2.7697084412       -2.4693275199        1.6667838000
 H          3.2232641515       -3.1873976698        2.3544178399
 H          1.6977802713       -2.4298304100        1.8784752502
 C          3.3688480412       -1.0843984798        1.9442768396
 H          4.4570380912       -1.1453305597        1.9644285993
 H          3.0178945714       -0.7506931998        2.9241714597
 H          5.7203901403       -2.1334181401       -1.6982707809
 H          4.0135304602       -1.8341297903       -2.0359326105
 H          5.3605726702        0.1717060900       -1.3373268011
 H          5.5512595907       -0.5572576898        0.2671826790
 O          3.1570257001        1.0027422598       -1.1695441206
 C          1.9791208701        1.7192825497       -1.0071147303
 O          1.6820194298        2.4425896895       -1.9771505503
 O          1.0226972911        0.4605452800        2.2500605801
 C         -0.0025450196        2.3648073396        0.3859752001
 C         -1.0479731498        1.9544290794       -0.6227715295
 C         -1.9352508701        2.8448111493       -1.2147625094
 C         -2.8944592002        2.3882979391       -2.1025472291
 C         -3.0119270102        1.0416762890       -2.3961698289
 C         -2.1320992100        0.1425331292       -1.8046756690
 C         -1.1579109798        0.6072759894       -0.9367875393
 H         -0.4605843296       -0.0967107005       -0.5105219595
 N         -2.2118121499       -1.2351875409       -2.0572053188
 S         -1.8850174794       -2.3059734507       -0.8127180088
 O         -0.4658053794       -2.3921207805       -0.5835605892
 O         -2.5318870994       -3.5347665308       -1.2236590685
 C         -2.7344231991       -1.6261599506        0.6017829813
 C         -2.0402752289       -1.0588231804        1.6500480711
 C         -2.7540883087       -0.4956687603        2.6970669612
 C         -4.1393892787       -0.5090703605        2.6802030816
 C         -4.8231881589       -1.0916895107        1.6233823719
 C         -4.1162129191       -1.6527732407        0.5735724317
 H         -4.6104824893       -2.1248538309       -0.2599757981
 H         -5.9010933389       -1.1062362008        1.6139707121
 H         -4.6877651585       -0.0651076204        3.4960057517
 H         -2.2122909085       -0.0445813302        3.5132772010
 H         -0.9613043789       -1.0481484003        1.6455537508
 H         -3.0049233300       -1.5249522010       -2.6097719186
 H         -3.7670940003        0.6883286889       -3.0812433287
 H         -3.5696993104        3.0918667889       -2.5651514290
 H         -1.8708681701        3.8962136693       -0.9877511496
 H         -0.3732152493        2.0706277697        1.3805456303
 C          0.2790309903        3.8527495997        0.3940647499
 C         -0.5566694696        4.7763194597        1.2279575500
 C          0.8535036806        4.4720295699        1.6319831296
 H          1.6027103205        5.2417337099        1.5233509193
 H          1.0156342109        3.8234680100        2.4806496797
 H         -0.7757901698        5.7611273296        0.8437086999
 H         -1.3538558794        4.3406640197        1.8109566302
 H          0.6457999900        4.2111373396       -0.5610145703
