  62
        -98.93170923
 C         -2.2880336946       -1.3530718408        0.3039337436
 C         -2.4024767364       -0.3106704639       -0.6454217203
 C         -3.3825548350        0.7542802096       -0.3420132225
 C         -4.0906101410        0.6916358438        0.7989335515
 C         -5.1381480443        1.6438330169        1.3182484790
 C         -6.1746590257        2.1475821722        0.3020638945
 C         -6.0070953136        3.6253710899       -0.0553182808
 H         -6.9667319487        4.0104757707       -0.4071517125
 H         -5.7489652765        4.1751570347        0.8522651994
 C         -4.9678158342        3.9176190523       -1.1362318308
 H         -5.3490938197        3.5832704013       -2.1034865022
 H         -4.8459360453        5.0018660669       -1.1924832487
 C         -3.5944242270        3.2807796697       -0.9136228594
 H         -2.8625475588        3.8604384581       -1.4801376586
 H         -3.3077958024        3.3469137394        0.1354331436
 C         -3.5059557634        1.8241034428       -1.3926438264
 H         -4.3602936984        1.5903951217       -2.0346745096
 H         -2.6165576468        1.6972078874       -2.0179983051
 H         -7.1638005614        2.0183423491        0.7443841410
 H         -6.1411287199        1.5340728841       -0.5969321713
 H         -5.6399478176        1.1004910338        2.1223460995
 H         -4.6338721465        2.4932361632        1.7859847368
 O         -3.9087557488       -0.3080067611        1.7109060455
 C         -3.0063893703       -1.3335689132        1.5002830615
 O         -2.9294727638       -2.1503887356        2.4406295717
 H          0.1434962109       -0.6864410770        1.3686339286
 C          0.6486916823       -1.0236139918        0.4702503305
 C          0.0290284213       -1.9742287099       -0.3329034584
 C          0.6878995280       -2.4020119281       -1.4770970793
 C          1.9259566365       -1.8789011845       -1.8085801622
 C          2.5311109693       -0.9231838321       -1.0143073796
 C          1.8825935742       -0.4899806246        0.1350661455
 N          2.4840045671        0.4947268624        0.9415258344
 S          4.0489036823        0.2098171727        1.4819839400
 O          4.3095831778       -1.2046332430        1.6217187558
 O          4.1868487584        1.0091424002        2.6803616041
 C          5.0808618422        0.8978399151        0.2048455419
 C          4.8993346539        2.2239333874       -0.1358559299
 C          5.7021874576        2.7774729046       -1.1202906255
 C          6.6698678092        2.0012945772       -1.7408421812
 C          6.8418815229        0.6724230068       -1.3848455992
 C          6.0407627678        0.1118774530       -0.4020744896
 H          6.1334578449       -0.9181676018       -0.0969229233
 H          7.5946603506        0.0709332389       -1.8684811099
 H          7.2934179569        2.4349690223       -2.5066047255
 H          5.5705588504        3.8102856287       -1.4002512238
 H          4.1389253866        2.7930307452        0.3723760963
 H          1.9002443084        0.8002082561        1.7068105136
 H          3.4905898229       -0.5075006095       -1.2755649188
 H          2.4236143340       -2.2159992618       -2.7050521512
 H          0.2240238210       -3.1295371454       -2.1222588605
 C         -1.3129333974       -2.5019882608        0.1146508077
 H         -1.1791296662       -2.9262406020        1.1244581627
 C         -1.8410983321       -3.6309175739       -0.7582956171
 C         -3.3129408642       -3.8828193700       -0.8899404011
 C         -2.5310532922       -3.3795821302       -2.0640474155
 H         -2.3429352270       -4.0604886737       -2.8812844032
 H         -2.6596738770       -2.3537168169       -2.3695905478
 H         -3.6579036052       -4.9059568806       -0.8978367962
 H         -3.9849761734       -3.2007056958       -0.3891366709
 H         -1.2100960306       -4.5126856190       -0.7011145284
 O         -1.7238777958       -0.2537381434       -1.7025633399
