  62
        -98.93784233
 C          2.3986554903        0.4729313708        0.2236441301
 C          1.9844104902       -0.4215085392        1.2440270900
 C          2.0215604503       -1.8587309192        0.9384875599
 C          2.4203187405       -2.2560327891       -0.2813874400
 C          2.5976054206       -3.6571490191       -0.8125224901
 C          1.5331934306       -4.6992444691       -0.4504835403
 C          0.0970454406       -4.1606784892       -0.3713346405
 H          0.0415442106       -3.1515377992       -0.7868318404
 H         -0.5537391093       -4.7930415092       -0.9791072506
 C         -0.4562820497       -4.1467984993        1.0553374794
 H         -0.1780972497       -5.0781230593        1.5544341694
 H         -1.5473118497       -4.1107412693        1.0040925593
 C         -0.0048604299       -2.9619532893        1.9057326896
 H         -0.4243082398       -2.0437590493        1.4858002295
 H         -0.4218352300       -3.0836542194        2.9083049495
 C          1.5174820601       -2.7713814493        2.0193363298
 H          1.7262328000       -2.2627633993        2.9644721399
 H          2.0369674002       -3.7266140993        2.0163068798
 H          1.7899893504       -5.1685691592        0.4983805797
 H          1.5876162107       -5.4793039291       -1.2122327503
 H          2.6405597008       -3.5439431390       -1.8988236400
 H          3.5777868806       -4.0199194291       -0.4872656899
 O          2.7834446106       -1.3647781191       -1.2440663499
 C          2.7260047505        0.0062346309       -1.0474041098
 O          2.9948349107        0.6612496610       -2.0771039998
 H          0.7033698406        1.4185572209       -1.5578795501
 C          0.1694688204        1.9567815208       -0.7871773701
 C          0.8397178502        2.3643578108        0.3570100400
 C          0.1302476800        3.0612026107        1.3271987399
 C         -1.2213309299        3.3162736107        1.1682848997
 C         -1.9000534997        2.8403941307        0.0596619896
 C         -1.1940791596        2.1536086408       -0.9180659903
 N         -1.9126424194        1.5357031408       -1.9852359105
 S         -2.1642515394       -0.0955076592       -1.5989342606
 O         -0.9347269994       -0.7501339092       -1.2063019805
 O         -2.8437379692       -0.6720215092       -2.7390515208
 C         -3.2680705796        0.0233394207       -0.2116991708
 C         -4.6242602896        0.1400513206       -0.4453454010
 C         -5.4789626498        0.2832197006        0.6359971289
 C         -4.9641802400        0.3124709905        1.9236155990
 C         -3.5996218600        0.1954773105        2.1409710892
 C         -2.7394178398        0.0516115806        1.0638759893
 H         -1.6710955598       -0.0373237893        1.1931556795
 H         -3.1958668102        0.2201717705        3.1403465492
 H         -5.6295019501        0.4270957104        2.7647533189
 H         -6.5405810797        0.3736001905        0.4717342687
 H         -4.9753199294        0.1087500907       -1.4635666711
 H         -1.4027268792        1.5640736409       -2.8594545004
 H         -2.9624971297        2.9820319207       -0.0530900706
 H         -1.7586457001        3.8572422806        1.9313925497
 H          0.6385938699        3.3764234507        2.2260249000
 C          2.2795576402        1.9521981508        0.5569871702
 H          2.5001936400        2.0354961708        1.6305019902
 C          3.2218744003        2.8633913309       -0.1994976496
 C          3.5863538302        4.1893424609        0.3961744705
 C          4.6052136302        3.0925606109        0.3279331306
 H          5.4151325103        3.1766472010       -0.3805611392
 H          4.8789918001        2.5916227309        1.2449610807
 H          3.6964490902        5.0349660409       -0.2648589394
 H          3.1746797800        4.4363637308        1.3626777905
 H          3.1051523205        2.8075970610       -1.2737856096
 O          1.6074489000       -0.0239843093        2.3792360500
