  62
        -98.93831302
 C         -2.2402337396       -0.9892732706        0.4192673001
 C         -2.4690164198       -0.1402272505       -0.6880722597
 C         -3.3512144801        1.0188895092       -0.4550741495
 C         -3.8743591902        1.2182073389        0.7691419005
 C         -4.7644276904        2.3199240586        1.3064075307
 C         -5.4895594007        3.2715257886        0.3583320709
 C         -6.5820111906        2.6205452884       -0.4891321392
 H         -7.4063660105        2.3330629481        0.1683571408
 H         -6.9607648908        3.3679165784       -1.1897022691
 C         -6.1594185502        1.3777071886       -1.2685640494
 H         -7.0305861902        1.0198072785       -1.8239114895
 H         -5.8758935700        0.5861643286       -0.5718052195
 C         -5.0249240103        1.5878327991       -2.2694930094
 H         -5.2794685506        2.4046453191       -2.9475204693
 H         -4.9375855701        0.6743815192       -2.8636595695
 C         -3.6431978704        1.8726932593       -1.6552846194
 H         -2.8832011203        1.6198719396       -2.4004738395
 H         -3.5262610507        2.9267120893       -1.4146422292
 H         -4.7752375309        3.7905886788       -0.2738262891
 H         -5.9665927009        4.0298405083        0.9852756510
 H         -4.1313997906        2.9135890687        1.9755916708
 H         -5.5009301803        1.8210229183        1.9444396106
 O         -3.5972999199        0.3840995788        1.8161509204
 C         -2.7883234396       -0.7291062909        1.6723568502
 O         -2.6308461494       -1.3906489011        2.7197964701
 O         -1.9556755998       -0.3311142502       -1.8204956198
 C         -1.3587628493       -2.2137745304        0.2663853999
 C          0.0278749506       -1.8246574199       -0.1887729200
 C          0.7582152008       -2.5693955796       -1.1059375202
 C          2.0388635407       -2.1837173992       -1.4628403801
 C          2.6182511304       -1.0527618491       -0.9183939500
 C          1.9011576302       -0.3056474695        0.0068671302
 C          0.6231151903       -0.7003946499        0.3698237301
 H          0.0701189002       -0.1187714901        1.0986695002
 N          2.4807417699        0.8528819906        0.5600324103
 S          3.9512855500        0.6688605709        1.3541976203
 O          4.0792078703       -0.6524651692        1.9253344001
 O          4.0245277297        1.7789876807        2.2793429904
 C          5.1657840699        0.8994336714        0.0731551203
 C          6.1030957902       -0.0852435184       -0.1704213999
 C          7.0472581601        0.1201663320       -1.1645351799
 C          7.0369882098        1.2997972321       -1.8929891897
 C          6.0896013495        2.2795198519       -1.6345974395
 C          5.1441299896        2.0814845815       -0.6411194796
 H          4.3937443194        2.8179039312       -0.4062735794
 H          6.0846382093        3.1953707619       -2.2034066494
 H          7.7717234697        1.4570447025       -2.6667611797
 H          7.7845789603       -0.6400101977       -1.3666471000
 H          6.0676540004       -0.9883524485        0.4175458600
 H          1.8426008398        1.3819829603        1.1371114004
 H          3.6111652603       -0.7434344088       -1.2012205400
 H          2.5920718608       -2.7708541690       -2.1797440402
 H          0.3232069910       -3.4530721297       -1.5431021303
 H         -1.2701465391       -2.6515410505        1.2725412899
 C         -2.0284572890       -3.2219588804       -0.6457704902
 C         -1.8257264287       -4.6913359304       -0.4342738404
 C         -3.1422261988       -4.0603626908       -0.0969174703
 H         -3.9932162688       -4.2669443409       -0.7283673203
 H         -3.3950030088       -3.9252460210        0.9451654897
 H         -1.7761185685       -5.3350813702       -1.2995642805
 H         -1.1884291986       -4.9969504703        0.3819199995
 H         -2.1297135592       -2.8572696203       -1.6614291901
