  62
        -98.94574708
 C          2.4766193093        1.1360525618       -0.0449430292
 C          3.0947487693        0.2520979318        0.8711185808
 C          3.5978994998       -1.0057260879        0.3101495607
 C          3.4528166601       -1.2546364078       -1.0042969294
 C          3.9175656005       -2.4898595875       -1.7266382195
 C          2.9243752808       -3.6579546978       -1.6530496099
 C          2.8357654407       -4.3502499480       -0.2923480600
 H          2.2734444310       -5.2744308681       -0.4391694203
 H          3.8369655807       -4.6256502378        0.0409466901
 C          2.1395427703       -3.5202090684        0.7956635400
 H          1.5639632702       -2.7162154685        0.3279945500
 H          1.4211948404       -4.1473862287        1.3296390497
 C          3.0859644400       -2.9220550983        1.8375103302
 H          3.5641429801       -3.7269517383        2.3999281602
 H          2.4923578097       -2.3292837386        2.5386825902
 C          4.1781930098       -2.0149955879        1.2546310506
 H          4.6466621495       -1.4708506280        2.0783378108
 H          4.9369040001       -2.6148568777        0.7533296906
 H          3.2345858412       -4.3983318076       -2.3940052200
 H          1.9341306808       -3.2943851780       -1.9399671800
 H          4.8839875605       -2.8056318173       -1.3331067594
 H          4.0413601707       -2.2093666573       -2.7747023095
 O          2.8579283200       -0.3770564678       -1.8540858794
 C          2.3190999096        0.8166745920       -1.3941839793
 O          1.7520197596        1.4925313120       -2.2725008893
 O          3.2112220290        0.4986909917        2.1028864808
 C          1.8668598889        2.4243385916        0.4826569109
 C          0.3663530189        2.3163554012        0.3621793006
 C         -0.4265941312        3.2132941312       -0.3394303094
 C         -1.7906486411        3.0011377208       -0.4521978097
 C         -2.3905137009        1.8992978306        0.1293639200
 C         -1.6064515108        1.0008052807        0.8417661400
 C         -0.2451336109        1.2194228110        0.9592431403
 H          0.3651526892        0.5124883610        1.5092019603
 N         -2.2103857707       -0.1379427096        1.4248463697
 S         -2.7528227802       -1.2810117195        0.3101026294
 O         -2.8074844700       -2.5306468797        1.0379504992
 O         -1.9450917099       -1.2727794591       -0.8895475005
 C         -4.4087819202       -0.7418085999       -0.0540735909
 C         -4.7354558401       -0.3318713698       -1.3314918909
 C         -6.0301421201        0.0936011799       -1.5866222910
 C         -6.9681363603        0.1017558995       -0.5654394912
 C         -6.6235553705       -0.3146202506        0.7121259188
 C         -5.3317637604       -0.7421667303        0.9737812490
 H         -5.0210285905       -1.0784248304        1.9487902090
 H         -7.3558041706       -0.3063803409        1.5032471086
 H         -7.9738377004        0.4352822393       -0.7669468114
 H         -6.2993804800        0.4183147500       -2.5788230910
 H         -3.9696202399       -0.3490452295       -2.0906423407
 H         -1.6033650207       -0.5991650296        2.0894375097
 H         -3.4508716409        1.7289681703        0.0381120597
 H         -2.3941477612        3.7028623008       -1.0073019197
 H          0.0250047387        4.0699947213       -0.8115697892
 H          2.1227447987        2.4499589315        1.5522472009
 C          2.4580959887        3.6419189519       -0.1914364588
 C          2.4171399782        4.9704369817        0.5011837714
 C          3.7166297384        4.2378335721        0.3618063216
 H          4.4533703585        4.6172097724       -0.3301032082
 H          4.1417577884        3.7749524620        1.2404880416
 H          2.2637518981        5.8576109318       -0.0940244085
 H          1.9598642980        5.0094247715        1.4781852213
 H          2.3479673289        3.6197156520       -1.2692159988
