  62
        -98.93485510
 C          1.9573663600        0.9210669878        0.7209595984
 C          1.9632640939        0.2340378695       -0.5161918672
 C          2.2775897230       -1.2066484968       -0.4678225180
 C          2.4688321692       -1.8072895822        0.7199674109
 C          2.7475592168       -3.2539815430        1.0723580473
 C          3.2320616789       -4.2379638405        0.0099776433
 C          4.6208170952       -3.9425877436       -0.5546905104
 H          4.8219888202       -4.6607634978       -1.3525129031
 H          5.3595080464       -4.1045128415        0.2341847740
 C          4.8249332932       -2.5299491990       -1.0963759037
 H          5.8442191612       -2.4656958325       -1.4864994447
 H          4.7474459563       -1.8092431736       -0.2797050787
 C          3.8714422177       -2.1149936703       -2.2156962268
 H          3.8975599487       -2.8577809458       -3.0150525269
 H          4.2376801919       -1.1697198408       -2.6247854723
 C          2.4064485571       -1.8979323708       -1.7941327910
 H          1.8473428125       -2.8308602598       -1.7912840838
 H          1.9330597926       -1.2389536892       -2.5278957819
 H          2.5039527794       -4.3124478034       -0.7923845668
 H          3.2734017924       -5.2181311511        0.4929793385
 H          3.4742546306       -3.2240549481        1.8906824281
 H          1.8148876344       -3.6381272704        1.5012364512
 O          2.3742804385       -1.1175184452        1.8961367570
 C          2.1184278297        0.2412129987        1.9277680273
 O          2.0613416054        0.7224199188        3.0786896941
 H         -0.7099977328        1.2173724005        1.0368207374
 C         -0.7282709122        1.9508570248        0.2419269109
 C          0.4158407375        2.6917932141       -0.0298028508
 C          0.3746117159        3.6299130897       -1.0517256192
 C         -0.7801526424        3.7974608722       -1.7966652405
 C         -1.9041146799        3.0327899888       -1.5475009044
 C         -1.8757023398        2.0988572334       -0.5167299237
 N         -3.0105817916        1.3223439001       -0.2187173710
 S         -2.7890546163       -0.2383611698        0.3832071312
 O         -2.5261413585       -0.1560379201        1.7996051391
 O         -1.8201902654       -0.9626763402       -0.4089256607
 C         -4.4251425028       -0.8996503952        0.1223262088
 C         -4.6670179170       -1.7180783786       -0.9644575913
 C         -5.9521284590       -2.1951921965       -1.1715351389
 C         -6.9683549017       -1.8442244255       -0.2957702930
 C         -6.7101724377       -1.0219253400        0.7911688728
 C         -5.4274429733       -0.5433546812        1.0051108379
 H         -5.1757386163        0.0897332209        1.8398688043
 H         -7.5018552745       -0.7528621813        1.4715410946
 H         -7.9674054556       -2.2158477709       -0.4599003648
 H         -6.1546095268       -2.8370488022       -2.0136999379
 H         -3.8435780999       -1.9680692036       -1.6142543380
 H         -3.6947549373        1.3331647758       -0.9633246323
 H         -2.7953880765        3.1503344614       -2.1449887142
 H         -0.7978216344        4.5222986067       -2.5964884594
 H          1.2540014591        4.2065645621       -1.2867732057
 C          1.6350494143        2.4034684808        0.8113585560
 H          1.3568597629        2.5659249212        1.8668240877
 C          2.8107488332        3.3250028850        0.5253679993
 C          4.2181145697        2.8746082781        0.7778642470
 C          3.7448156653        3.1034438939       -0.6244941245
 H          4.1176866581        3.9683224573       -1.1535560405
 H          3.5632228896        2.2484347690       -1.2554276222
 H          4.3628246919        1.8569909747        1.1117678885
 H          4.9118457184        3.5790976232        1.2116455847
 H          2.5860670621        4.3561454867        0.7805525378
 O          1.7258723604        0.7841283651       -1.6226639262
