  62
        -98.94416162
 C         -1.9661286656       -0.7821302091        0.3579607528
 C         -2.3385507693        0.4306708553       -0.2704862674
 C         -3.6978263761        0.9111585915        0.0217322671
 C         -4.4797606185        0.2141709303        0.8657838432
 C         -5.8980212996        0.5632285324        1.2101669647
 C         -6.8870086021       -0.1234835188        0.2578306356
 C         -6.5403214740        0.0476200726       -1.2211164048
 H         -5.6043462373       -0.4751491055       -1.4305766968
 H         -7.3226567157       -0.4500995912       -1.7981456390
 C         -6.4176429401        1.5075294478       -1.6794264738
 H         -6.9446332437        1.6220690099       -2.6290578832
 H         -6.9046095708        2.1648473965       -0.9581508060
 C         -4.9811943478        1.9819999632       -1.9072939798
 H         -5.0189964484        2.9406994962       -2.4315353670
 H         -4.4608150991        1.2743089651       -2.5575164907
 C         -4.1369251712        2.1856699901       -0.6427995445
 H         -4.6770163693        2.8217009548        0.0615748368
 H         -3.2179500414        2.7022343847       -0.9355539560
 H         -7.8842264277        0.2772349374        0.4485847047
 H         -6.9010388313       -1.1919736471        0.4847675144
 H         -6.0964286271        0.2276450796        2.2294912533
 H         -6.0226235406        1.6433728040        1.1635618379
 O         -4.0750170038       -0.9290966385        1.4751367456
 C         -2.8165320270       -1.4539058391        1.2391247095
 O         -2.5731561659       -2.5058961790        1.8631213880
 O         -1.5859300791        1.0828027028       -1.0407783426
 C         -0.5866151856       -1.3839351209        0.1420046087
 C          0.4374460888       -0.4663259767        0.7629211484
 C          0.5776625154       -0.4522051716        2.1479872607
 C          1.4896047303        0.3875689858        2.7592344096
 C          2.2787500309        1.2364616837        2.0016483650
 C          2.1385714463        1.2353363245        0.6213991403
 C          1.2311745127        0.3819767129        0.0077173421
 H          1.1287416054        0.4007149673       -1.0655797181
 N          2.9543053369        2.0885536084       -0.1556351895
 S          4.5901970949        1.7258809313       -0.1161788508
 O          5.1186031736        2.0742529771        1.1778753341
 O          5.1736498345        2.4054464892       -1.2504264925
 C          4.6461389330       -0.0416920224       -0.3476817809
 C          4.6056858127       -0.5402892513       -1.6345627696
 C          4.5562270843       -1.9120166622       -1.8207432357
 C          4.5333379974       -2.7566605600       -0.7214267684
 C          4.5716829898       -2.2400585277        0.5643565108
 C          4.6277814872       -0.8689831180        0.7570064780
 H          4.6622335042       -0.4288697968        1.7399190286
 H          4.5530141169       -2.8990263567        1.4175500827
 H          4.4864222134       -3.8242783480       -0.8685709925
 H          4.5305106680       -2.3184444848       -2.8190794917
 H          4.6280836389        0.1507582618       -2.4620959311
 H          2.6449756274        2.1552492648       -1.1153952976
 H          3.0040659146        1.8916627172        2.4566287841
 H          1.5876940699        0.3836543754        3.8343099882
 H         -0.0459854579       -1.1088575443        2.7391918621
 H         -0.5799586825       -2.3261744839        0.7059197943
 C         -0.3247118472       -1.6867772960       -1.3185462349
 C          0.8458834491       -2.5470634569       -1.6871048926
 C         -0.5488143374       -3.0758646235       -1.8316060286
 H         -0.9547897240       -3.1979967914       -2.8246831083
 H         -0.8912004483       -3.8195450939       -1.1269792374
 H          1.4008835881       -2.3083973516       -2.5813167048
 H          1.4554073449       -2.9273240993       -0.8814502445
 H         -0.5823275288       -0.8675051982       -1.9784982464
