  62
        -98.93832738
 C         -1.3746664373       -1.5211314335       -0.1493418187
 C         -2.5235186114       -1.2773698041        0.6420677626
 C         -3.3861654163       -0.1513000511        0.2404403759
 C         -3.0214848275        0.6039698708       -0.8108833003
 C         -3.7197064566        1.8036061958       -1.3991713259
 C         -4.2458302566        2.8466316777       -0.4009647287
 C         -5.7722565649        2.8832829191       -0.3116815166
 H         -6.0784528024        3.8677007527        0.0492800120
 H         -6.1830983288        2.7635495419       -1.3164144022
 C         -6.3921969799        1.8390002764        0.6153664605
 H         -6.1860191637        2.1096765669        1.6531987474
 H         -7.4755910791        1.8784315836        0.4794610817
 C         -5.9227639552        0.3998479323        0.3907654315
 H         -5.8405781608        0.1856140987       -0.6741448960
 H         -6.6908997410       -0.2660714964        0.7899558501
 C         -4.6021378634        0.0641691621        1.0995744230
 H         -4.3740810887        0.8312768192        1.8453737392
 H         -4.7135886140       -0.8702737881        1.6583757200
 H         -3.8146697812        2.6686695044        0.5829275312
 H         -3.9047335748        3.8284949942       -0.7328017543
 H         -2.9871791850        2.2633487895       -2.0666720707
 H         -4.5371414683        1.4525706558       -2.0337114458
 O         -1.8989834091        0.3399578898       -1.5376062479
 C         -1.0561745718       -0.7188323859       -1.2435388733
 O         -0.0879357698       -0.8202389012       -2.0211421791
 H          1.8551075518       -2.0799855078       -1.0948039766
 C          1.8905777547       -1.7629566369       -0.0650123478
 C          0.8201681285       -2.0229812164        0.7763949036
 C          0.8862412271       -1.5802508119        2.0947590112
 C          1.9950446776       -0.8951096704        2.5561100340
 C          3.0485108129       -0.6091299143        1.7046214382
 C          2.9831704905       -1.0351081386        0.3849592609
 N          4.0139607251       -0.6852667814       -0.5072909034
 S          4.4787929586        0.9239440929       -0.4930766161
 O          4.8930654795        1.2202316507       -1.8471942624
 O          5.4905275394        1.1149994058        0.5182406112
 C          3.0285697597        1.8739438514       -0.0572653017
 C          1.8544739896        1.6792631796       -0.7573238448
 C          0.7387099277        2.4241427469       -0.4101191155
 C          0.8128669241        3.3493659749        0.6190553731
 C          2.0011920112        3.5378504233        1.3075529527
 C          3.1190535676        2.7928881786        0.9692777980
 H          4.0601059049        2.8999701506        1.4840970828
 H          2.0580460293        4.2583220602        2.1075533035
 H         -0.0605283586        3.9241243459        0.8840676974
 H         -0.1844473612        2.2630610075       -0.9446288054
 H          1.7965597244        0.9480857931       -1.5486619969
 H          3.8380701437       -0.9912372567       -1.4539266717
 H          3.9119883645       -0.0556356061        2.0371607426
 H          2.0352963211       -0.5661686735        3.5831688910
 H          0.0467438822       -1.7661873274        2.7496044425
 C         -0.4497194440       -2.6551399434        0.2647459184
 H         -0.9529220867       -3.1519945650        1.1042420324
 C         -0.2356937794       -3.6640462942       -0.8432834579
 C          0.3814382127       -4.9896906727       -0.5146368013
 C         -1.0711084140       -4.9073044515       -0.8729076720
 H         -1.3895944020       -5.2905971821       -1.8307866652
 H         -1.7999765426       -5.0389758818       -0.0867784330
 H          0.6398593587       -5.1753357956        0.5168726028
 H          1.0628132835       -5.4328766725       -1.2247176157
 H          0.0085259732       -3.2147741370       -1.7979905373
 O         -2.8218737288       -1.9772382210        1.6462097404
