  62
        -98.93329635
 C         -1.8840778784        0.8105406729        0.5624436831
 C         -2.7711864171        0.9804152091       -0.5303362435
 C         -3.8781085314        0.0189810061       -0.6627405513
 C         -3.9905673433       -0.9752499476        0.2370802709
 C         -4.9703684529       -2.1261289396        0.3378526221
 C         -6.2441179245       -2.1413131562       -0.5030751170
 C         -7.2725457994       -1.0765643670       -0.1224820440
 H         -8.0862351918       -1.1114215268       -0.8501124475
 H         -7.6891861942       -1.3314910902        0.8552588135
 C         -6.7415875027        0.3521904705       -0.0377581311
 H         -5.9882487976        0.4169842527        0.7500388372
 H         -7.5717274137        1.0001025750        0.2565087225
 C         -6.1541757829        0.9092534481       -1.3328317069
 H         -6.8859723657        0.8175107518       -2.1377423934
 H         -5.9613857661        1.9737857590       -1.1753800395
 C         -4.8357530720        0.2641426990       -1.7932927846
 H         -5.0171059843       -0.6531261464       -2.3485826109
 H         -4.3352563926        0.9631740625       -2.4696485335
 H         -6.7083566324       -3.1189028406       -0.3467898860
 H         -5.9978068281       -2.0756191104       -1.5587216796
 H         -4.3909775562       -3.0273167228        0.1075733621
 H         -5.2386645941       -2.1975064434        1.3968767101
 O         -3.1053812759       -1.1102342282        1.2659016201
 C         -2.0389275490       -0.2383153435        1.4673820074
 O         -1.3585743993       -0.5195998816        2.4691845675
 H          0.4309568026       -0.6275842381        0.3015397986
 C          0.8312733844        0.1232805176       -0.3640936479
 C          0.3481617543        1.4244413443       -0.3207126203
 C          0.8766450814        2.3637513993       -1.1996132341
 C          1.8609844716        2.0117990232       -2.1053075604
 C          2.3525983419        0.7194968962       -2.1332166946
 C          1.8350460923       -0.2261262148       -1.2558010928
 N          2.3350030375       -1.5489719251       -1.2350873378
 S          3.2880697198       -1.9254053042        0.0923061100
 O          3.7788690149       -3.2640386483       -0.1484428409
 O          2.5390488782       -1.7105776729        1.3011193327
 C          4.6388088455       -0.7622354707       -0.0113454630
 C          5.8030238533       -1.1401689677       -0.6515573493
 C          6.8202851753       -0.2106136315       -0.7975107413
 C          6.6513970565        1.0781517260       -0.3141196775
 C          5.4753983254        1.4430549938        0.3233481671
 C          4.4561523118        0.5164179375        0.4771865584
 H          3.5313984052        0.7621599136        0.9739524207
 H          5.3439552451        2.4443513590        0.7004775990
 H          7.4414676261        1.8027295495       -0.4323579539
 H          7.7372204487       -0.4927903611       -1.2892944759
 H          5.8903759610       -2.1538966647       -1.0080342062
 H          2.8364334825       -1.8002285897       -2.0769492436
 H          3.1254189659        0.4384345978       -2.8330096911
 H          2.2523910191        2.7489371593       -2.7890142943
 H          0.4915016158        3.3724098487       -1.1822235572
 C         -0.7446952474        1.8111564121        0.6444236401
 H         -1.1715889802        2.7596922385        0.2784560718
 C         -0.2251007866        2.0740929531        2.0481679810
 C          0.9661807288        1.3872314378        2.6367895325
 C          1.0568097213        2.8300430615        2.2457124073
 H          1.1029584319        3.5725849726        3.0277779665
 H          1.6285860683        3.0770355180        1.3635568650
 H          1.4741090636        0.6377622759        2.0496273978
 H          0.9205394258        1.1309963791        3.6845293295
 H         -1.0345673078        2.2921848431        2.7377480708
 O         -2.6397876245        1.9115607141       -1.3697922521
