  62
        -98.93337266
 C         -2.2108726354       -0.5200932430        0.1792542779
 C         -3.4847667440       -0.9713394019        0.5982138072
 C         -4.5889751099       -0.0146624886        0.4480932931
 C         -4.3414824720        1.2125795306       -0.0442008030
 C         -5.3363843107        2.3302292021       -0.2158153573
 C         -6.4640905787        2.0880681743       -1.2377913853
 C         -7.7577966667        1.5301114167       -0.6316352840
 H         -7.7961924758        1.8016978945        0.4239278164
 H         -8.6086391036        2.0176129054       -1.1118285236
 C         -7.9668206392        0.0199654395       -0.7789941449
 H         -8.2975183482       -0.1966190133       -1.7973244888
 H         -8.7724007867       -0.2735347226       -0.1025288916
 C         -6.7435574398       -0.8535969748       -0.5000632343
 H         -7.0726163095       -1.8930936230       -0.4440755065
 H         -6.0498506425       -0.7949890108       -1.3421728680
 C         -5.9727463057       -0.4901670510        0.7839170255
 H         -6.5101001716        0.2651563283        1.3552228074
 H         -5.8533832380       -1.3767859259        1.4097703312
 H         -6.1010971826        1.4354103642       -2.0313020503
 H         -6.6900483069        3.0538545211       -1.6925689434
 H         -5.7738447140        2.5621257960        0.7579198438
 H         -4.7483856431        3.1944913694       -0.5314430576
 O         -3.0948404249        1.6129608266       -0.4205080629
 C         -2.0042481318        0.7609474023       -0.3310131728
 O         -0.9310542345        1.2583565365       -0.7247818900
 H          1.6572948621       -1.0794465178       -0.2766596964
 C          1.3677772306       -0.7209427580        0.6956891565
 C          0.0568994718       -0.8367120219        1.1293880581
 C         -0.2729970761       -0.3622103924        2.3968967736
 C          0.6808917604        0.2335961884        3.1975532631
 C          1.9824722504        0.3743011786        2.7484527910
 C          2.3261989827       -0.1070010722        1.4914383756
 N          3.6583012456       -0.0178533556        1.0393686808
 S          3.9925402767        0.5188751677       -0.5273452979
 O          3.5742551588        1.8951730790       -0.6868476773
 O          3.4812928280       -0.4292333662       -1.4821709924
 C          5.7738921737        0.4249502283       -0.4906594789
 C          6.5209822237        1.5741879679       -0.3176772138
 C          7.9027988488        1.4746295090       -0.2667920860
 C          8.5102063183        0.2339436466       -0.3860583737
 C          7.7468292526       -0.9111008181       -0.5601567143
 C          6.3653798054       -0.8180168753       -0.6130289110
 H          5.7319714427       -1.6779277979       -0.7549936872
 H          8.2227475932       -1.8737987436       -0.6549764133
 H          9.5854036438        0.1589941493       -0.3457468475
 H          8.4987011420        2.3633396132       -0.1347032223
 H          6.0057847645        2.5180442607       -0.2379078343
 H          4.2328666596        0.5097959096        1.6850738396
 H          2.7261495883        0.8524305758        3.3684628347
 H          0.4090256043        0.6017101160        4.1756030785
 H         -1.2942668524       -0.4596330677        2.7401931510
 C         -1.0262668255       -1.4626486286        0.2871298773
 H         -1.4059026784       -2.3497660039        0.8162038128
 C         -0.5602118599       -1.8819414124       -1.0907987268
 C          0.1201610359       -3.2026435878       -1.2865986045
 C         -1.2745646647       -2.9956499639       -1.7936778827
 H         -1.4320138990       -2.9153616893       -2.8588620060
 H         -2.0877652248       -3.4718922244       -1.2655479557
 H          0.2553234698       -3.8269172103       -0.4163866683
 H          0.9264393733       -3.2609735179       -2.0022341171
 H         -0.2266424218       -1.0426587588       -1.6927192661
 O         -3.6871926858       -2.1151848861        1.0869288787
