  62
        -98.93287628
 C         -2.2035027108       -1.3017102394       -0.1185660891
 C         -3.0580488707       -0.8042021287        0.8969900407
 C         -4.0487412506        0.2162254912        0.5103967202
 C         -4.0629679806        0.6582584006       -0.7594116300
 C         -4.9735331405        1.6738824003       -1.4024661105
 C         -5.2834612803        2.9423556808       -0.5931953312
 C         -6.7190950603        2.9948695813       -0.0667224211
 H         -6.9934937301        4.0398973214        0.0934538583
 H         -7.3852734403        2.5975803010       -0.8354068909
 C         -6.9598331503        2.2485486720        1.2442917493
 H         -6.4883895002        2.7956010124        2.0635799989
 H         -8.0363057103        2.2475390922        1.4308767093
 C         -6.4554507605        0.8046923619        1.2750559700
 H         -6.6651369106        0.3076378015        0.3284176303
 H         -7.0148977306        0.2711202724        2.0462535503
 C         -4.9614062505        0.6822362419        1.6114080800
 H         -4.8227066706       -0.0497556477        2.4130904204
 H         -4.5864641604        1.6316335021        2.0042377395
 H         -5.1364969802        3.7994964404       -1.2525665616
 H         -4.5732574702        3.0428310311        0.2261898387
 H         -4.4782617305        1.9436452998       -2.3382195307
 H         -5.9057700206        1.1738026403       -1.6780083302
 O         -3.2003633207        0.1775505999       -1.6984820598
 C         -2.2652013508       -0.8085449900       -1.4210924593
 O         -1.5764995309       -1.1295416906       -2.4084561192
 O         -3.0076287108       -1.2143364081        2.0880461709
 C         -1.2349429310       -2.4011342793        0.2833989815
 C          0.1305552491       -1.8488281893        0.6020878311
 C          0.7371244791       -2.1033203187        1.8263565913
 C          1.9904863892       -1.5895383987        2.1110918609
 C          2.6657939793       -0.8191453693        1.1814779305
 C          2.0639901593       -0.5501557699       -0.0410538796
 C          0.8053191392       -1.0622149999       -0.3218544793
 H          0.3400835692       -0.8499885103       -1.2735110694
 N          2.7441209093        0.2180271295       -1.0021603400
 S          3.4159181995        1.6787931697       -0.5205165208
 O          2.6930414497        2.2539566004        0.5909454089
 O          3.4917082896        2.4795326690       -1.7228599413
 C          5.0652688295        1.2339545197       -0.0165967507
 C          5.5210097396        1.5783885603        1.2408148591
 C          6.8104994896        1.2238261203        1.6064199593
 C          7.6168901694        0.5359400198        0.7127354996
 C          7.1450535193        0.2001763992       -0.5476711602
 C          5.8576533194        0.5525342491       -0.9197465203
 H          5.4535971793        0.3135622487       -1.8893569902
 H          7.7748465992       -0.3347752613       -1.2401069899
 H          8.6189694394        0.2594297598        1.0002424297
 H          7.1790486896        1.4841813908        2.5856207091
 H          4.8560092097        2.1079016608        1.9045252289
 H          2.2267281393        0.3272089491       -1.8629627001
 H          3.6427884293       -0.4184987993        1.3966172503
 H          2.4487771592       -1.7934869783        3.0666516610
 H          0.2124004091       -2.6952198583        2.5619081516
 H         -1.6527154210       -2.8016842887        1.2204482117
 C         -1.1969629112       -3.5474123898       -0.7199883279
 C         -0.0042648312       -3.8907880104       -1.5564513878
 C         -0.3957283113       -4.7790530298       -0.4164163873
 H         -0.8269625315       -5.7448115298       -0.6315386368
 H          0.2259665087       -4.7568699094        0.4659649227
 H         -0.1857745713       -4.2259592309       -2.5663556376
 H          0.8864626188       -3.2919059705       -1.4527500381
 H         -2.1646713512       -3.7012982899       -1.1874326878
