  62
        -98.94114309
 C          1.9506772677        0.9025385452       -0.2168256881
 C          2.5947903907        0.3288027177        0.9102126202
 C          2.9344232185       -1.0953928801        0.8227616309
 C          2.5816135797       -1.7829394459       -0.2780593144
 C          2.8909932639       -3.2314891493       -0.5215401975
 C          4.2288961221       -3.4002013379       -1.2552991585
 C          5.3784759370       -2.6082199831       -0.6321821722
 H          6.2765605229       -2.8269152634       -1.2137907457
 H          5.1746248698       -1.5408220874       -0.7432237662
 C          5.6372701490       -2.9229917513        0.8477893312
 H          5.1705499624       -3.8726594016        1.1112312657
 H          6.7128152052       -3.0364031233        0.9983590281
 C          5.1636652320       -1.8400170479        1.8189762400
 H          5.5871256673       -2.0568924296        2.8031852673
 H          5.5517346775       -0.8689064512        1.5019802370
 C          3.6444738551       -1.7165446541        1.9930120325
 H          3.2184322842       -2.6948698823        2.2251508164
 H          3.4586229832       -1.0510421323        2.8410719603
 H          4.4816857575       -4.4619036077       -1.2714789271
 H          4.1010258241       -3.0646732571       -2.2870763501
 H          2.9178783413       -3.7546587200        0.4325289592
 H          2.0914241450       -3.6529833406       -1.1334642350
 O          1.9396835705       -1.2127260383       -1.3271182731
 C          1.6062865400        0.1360955085       -1.3310024830
 O          1.0349276761        0.4970756947       -2.3792413021
 O          2.8823382353        0.9904707066        1.9450334210
 C          1.5905865899        2.3732777286       -0.0967539620
 C          0.2208833324        2.5257444913        0.5235022425
 C          0.0229687434        3.3677130540        1.6116877110
 C         -1.2261011431        3.4833912456        2.1948803892
 C         -2.2935802183        2.7452105435        1.7181993213
 C         -2.1066645346        1.9044530637        0.6262186796
 C         -0.8607859653        1.8151152815        0.0235931961
 H         -0.7373992373        1.1604761843       -0.8263299518
 N         -3.1685578956        1.1433115670        0.1135293324
 S         -2.8294737816       -0.4216016558       -0.4317544484
 O         -1.8062615271       -1.0230747955        0.3940248348
 O         -2.5825796394       -0.3753787873       -1.8503759922
 C         -4.4030823647       -1.2094854135       -0.1328053292
 C         -5.4044951768       -1.0800933873       -1.0767949435
 C         -6.6389118962       -1.6591199277       -0.8280700576
 C         -6.8513061235       -2.3524001748        0.3543565976
 C         -5.8364860528       -2.4754131350        1.2915879504
 C         -4.5997893690       -1.8978350486        1.0494212163
 H         -3.7781205929       -1.9740930666        1.7436312127
 H         -6.0027202867       -3.0178231318        2.2083033249
 H         -7.8128112445       -2.8020348091        0.5456017719
 H         -7.4288265851       -1.5675664750       -1.5559038806
 H         -5.1880894099       -0.5400360194       -1.9838138641
 H         -3.9912691109        1.1659421382        0.7008208069
 H         -3.2641062922        2.8154630288        2.1853900838
 H         -1.3655412188        4.1393692103        3.0405478091
 H          0.8618439642        3.9167616360        2.0127621098
 H          2.3202312158        2.7951467996        0.6092649252
 C          1.6705124511        3.1565453277       -1.3913613841
 C          1.9051746161        4.6354892795       -1.3345468482
 C          2.9862863904        3.7232144718       -1.8294172926
 H          3.2213588860        3.7169880281       -2.8829527177
 H          3.8405127736        3.5509832977       -1.1907746428
 H          1.3947352903        5.2627833705       -2.0487971763
 H          2.0309506055        5.0865896862       -0.3621271681
 H          1.0100943465        2.7788292330       -2.1611361210
