  62
        -98.94435522
 C         -2.2576875599       -1.0711528846        0.2693542753
 C         -2.4132393527        0.0497360941       -0.5817328671
 C         -3.3285084469        1.0946941351       -0.1028338768
 C         -3.9164889098        0.9795571318        1.1008668881
 C         -4.8458187617        1.9774772735        1.7363873351
 C         -6.3068362361        1.8465038039        1.2842924927
 C         -6.5920386149        2.3193798009       -0.1417242152
 H         -7.6770276347        2.3764443498       -0.2489159935
 H         -6.1984474530        3.3276680586       -0.2743280210
 C         -6.0359133569        1.3991037381       -1.2372408980
 H         -5.7990416848        0.4231477430       -0.8075100147
 H         -6.8013047631        1.2362589528       -1.9992721839
 C         -4.7959823118        1.9391679050       -1.9499000310
 H         -5.0535954323        2.8496451248       -2.4955523140
 H         -4.4657959275        1.1927572094       -2.6768045283
 C         -3.6163888334        2.2467746578       -1.0181458495
 H         -2.7274728919        2.4162357418       -1.6311809575
 H         -3.8171148883        3.1495075757       -0.4414231342
 H         -6.6124470240        0.8031160158        1.3903540813
 H         -6.9137819745        2.4421089105        1.9699858550
 H         -4.8009775184        1.8001765799        2.8131334742
 H         -4.4899652830        2.9887269871        1.5366124120
 O         -3.7066834447       -0.0904536940        1.9117949482
 C         -2.8985867846       -1.1396349752        1.5115210341
 O         -2.8284773760       -2.0702377068        2.3388402393
 H          0.2304602441       -0.5272127439       -1.3899512945
 C          0.7494316289       -1.0154157084       -0.5784819284
 C          0.0712205590       -1.9399727779        0.2028960297
 C          0.7420010771       -2.5291592537        1.2683646378
 C          2.0592034528       -2.2021823590        1.5385653345
 C          2.7319521177       -1.2806454040        0.7560220946
 C          2.0655324433       -0.6763011250       -0.3015979626
 N          2.7346477428        0.2749923688       -1.0947826030
 S          3.4629010560        1.5611183529       -0.2951788854
 O          2.8089635927        1.8438322119        0.9624638855
 O          3.5018996968        2.6400499141       -1.2584077979
 C          5.1248627011        0.9889497886       -0.0063296274
 C          5.8734236796        0.5904041058       -1.0966316739
 C          7.1706575650        0.1485030813       -0.8921095920
 C          7.6956513214        0.1155158527        0.3913479363
 C          6.9326123012        0.5223187122        1.4750803619
 C          5.6336044036        0.9646169894        1.2773580432
 H          5.0010454192        1.2858712977        2.0896900587
 H          7.3423359429        0.4965438619        2.4720845981
 H          8.7055669172       -0.2291448913        0.5480770817
 H          7.7671637698       -0.1683862836       -1.7323492137
 H          5.4288866516        0.6358862511       -2.0767465418
 H          2.1670312587        0.6173630418       -1.8578169178
 H          3.7560167548       -1.0172908175        0.9650056458
 H          2.5672441609       -2.6681625138        2.3691255310
 H          0.2149579478       -3.2322375561        1.8971901083
 C         -1.3776028547       -2.2657887157       -0.0716825452
 H         -1.6780399112       -3.0601550195        0.6243414266
 C         -1.5822581545       -2.7679370800       -1.4874741291
 C         -1.1689713719       -4.1673369640       -1.8260986541
 C         -2.6230631974       -3.8126090558       -1.7494831795
 H         -3.1914700947       -3.7544317383       -2.6656506026
 H         -3.1930642896       -4.1731417781       -0.9053039842
 H         -0.7361019333       -4.3557038638       -2.7964354806
 H         -0.7529654208       -4.7703976207       -1.0332970182
 H         -1.4473166808       -2.0049881409       -2.2422953695
 O         -1.8320241371        0.1983732210       -1.6908348740
