  62
        -98.94738593
 C         -2.5642177707       -0.1358286656       -0.4007705128
 C         -2.1714494748       -0.7063798124        0.8341690535
 C         -1.7272992808       -2.1063799411        0.7805703178
 C         -1.7017229617       -2.7448094069       -0.4032422546
 C         -1.2468929417       -4.1608312217       -0.6085657956
 C          0.2473565013       -4.2323966266       -0.9482915511
 C          1.1424080118       -3.4494561334        0.0126998156
 H          2.1770094995       -3.6278132015       -0.2911996366
 H          0.9606680827       -2.3786439810       -0.1117001147
 C          0.9714473170       -3.8228946431        1.4918025160
 H          0.4911562667       -4.7991141182        1.5761406288
 H          1.9614864574       -3.9057758073        1.9448109328
 C          0.1921503784       -2.7942595728        2.3139835149
 H          0.3480457278       -3.0147003848        3.3738403548
 H          0.5948817855       -1.7975069068        2.1186012347
 C         -1.3225483485       -2.7559106178        2.0736742597
 H         -1.7344306461       -3.7657258786        2.1430381027
 H         -1.7687003410       -2.1459541839        2.8648267846
 H          0.3951308398       -3.8290495298       -1.9530007517
 H          0.5477835748       -5.2823028563       -0.9534294373
 H         -1.4525885769       -4.7344512727        0.2932856682
 H         -1.8177704030       -4.5847569289       -1.4369380466
 O         -2.0751692170       -2.1593238274       -1.5712599401
 C         -2.4962120800       -0.8405998301       -1.6008144681
 O         -2.7911764793       -0.4189935111       -2.7396800056
 H         -0.4132080081        1.0563387622       -0.9838672830
 C         -0.5951981953        1.9048597260       -0.3395387140
 C         -1.8951621618        2.2062023698        0.0440302657
 C         -2.1058398535        3.3128048727        0.8568030858
 C         -1.0342717186        4.0729198451        1.2935213375
 C          0.2621988664        3.7401840258        0.9463768934
 C          0.4814583583        2.6440651838        0.1198203212
 N          1.7813832413        2.2690354614       -0.2725197161
 S          2.0901398747        0.6041950504       -0.3029526784
 O          1.6434712637        0.0681785394       -1.5654825512
 O          1.5611251491       -0.0137673301        0.8895000174
 C          3.8727575541        0.6006998881       -0.2602399167
 C          4.5289715152        0.2451040216        0.9023805948
 C          5.9149411304        0.2727923007        0.9247053154
 C          6.6159980890        0.6566188482       -0.2083339523
 C          5.9428277161        1.0094569037       -1.3689664693
 C          4.5577808924        0.9817155095       -1.3988305332
 H          3.9911639026        1.2372399499       -2.2790995054
 H          6.4911746000        1.3043503029       -2.2490103213
 H          7.6940909034        0.6782926602       -0.1881781371
 H          6.4404710473       -0.0048462721        1.8240891047
 H          3.9401462956       -0.0508634282        1.7557792759
 H          2.4958340682        2.7558845500        0.2532709883
 H          1.0972359439        4.3197990109        1.3098663985
 H         -1.2109400634        4.9271214641        1.9295349213
 H         -3.1075962223        3.5732030758        1.1573350705
 C         -3.0063720276        1.3154665358       -0.4585308126
 H         -3.1677712264        1.5408577262       -1.5238552165
 C         -4.3131027828        1.5037951155        0.2842246817
 C         -5.2925143849        2.5478899320       -0.1587258319
 C         -5.5887722595        1.0972134928       -0.3882174041
 H         -6.3566094230        0.6242327744        0.2051909073
 H         -5.5137582791        0.7098300127       -1.3942291607
 H         -5.8630184590        3.0716289508        0.5934127783
 H         -5.0282700777        3.1504675532       -1.0146306472
 H         -4.2189654102        1.3016825828        1.3449484016
 O         -2.2081969530       -0.0838233515        1.9282749045
