  62
        -98.93790397
 C         -2.6035998521       -0.2005571473       -0.0283976633
 C         -2.3988354826       -1.2957095914       -0.8960179976
 C         -1.7462806070       -2.4845566936       -0.3223694850
 C         -1.3598672814       -2.4647534797        0.9672051723
 C         -0.6598467447       -3.5049658211        1.8167985657
 C         -0.0518776864       -4.7527793879        1.1823191645
 C          1.1844375981       -4.4910233376        0.3220640067
 H          1.4628623396       -5.4258807809       -0.1698792642
 H          2.0063366293       -4.2009627427        0.9817117745
 C          1.0401129120       -3.3969654678       -0.7334445843
 H          1.9976199223       -3.3144254255       -1.2570048622
 H          0.8562671134       -2.4356691002       -0.2466170844
 C         -0.0356624384       -3.6467453611       -1.7886867248
 H          0.1402744520       -4.6108119190       -2.2707934467
 H          0.0627016605       -2.8683935945       -2.5508264323
 C         -1.4857417441       -3.6130063953       -1.2795634570
 H         -1.7715167493       -4.5643397659       -0.8378173487
 H         -2.1397938073       -3.4399011372       -2.1395563061
 H         -0.8063698676       -5.2935280759        0.6184848424
 H          0.2538283303       -5.4029712362        2.0066268733
 H         -1.3929020333       -3.8167230266        2.5691745844
 H          0.1221932797       -2.9588378545        2.3551564521
 O         -1.6142658820       -1.3964437828        1.7781386951
 C         -2.1879172561       -0.2329812637        1.3024209770
 O         -2.2901536639        0.6755521568        2.1498966625
 O         -2.7330377498       -1.2773541752       -2.1134972859
 C         -3.1239923764        1.1090298613       -0.5986076467
 C         -2.0121518470        2.1222419966       -0.4668955928
 C         -2.1598647111        3.3854948246        0.0889227592
 C         -1.0557501083        4.1980075876        0.2912256450
 C          0.2163400938        3.7660028106       -0.0390166061
 C          0.3660777342        2.5191980057       -0.6269988039
 C         -0.7401008817        1.7235276658       -0.8592828982
 H         -0.6048843189        0.7432091643       -1.3007490594
 N          1.6763533821        2.0175293215       -0.8942452380
 S          2.1769763196        1.1084415249        0.4522667047
 O          1.4214084258       -0.1231824641        0.5378838252
 O          2.1400354678        1.9744535783        1.6030073956
 C          3.8709296921        0.7525296034        0.0218221243
 C          4.7860602691        1.7867670565        0.0657080639
 C          6.1005010975        1.5326723758       -0.2909640614
 C          6.4752799244        0.2561396204       -0.6841794243
 C          5.5451510598       -0.7712006805       -0.7235580636
 C          4.2278151942       -0.5228113324       -0.3696880333
 H          3.4702417330       -1.2905366829       -0.3799563367
 H          5.8386596798       -1.7631370786       -1.0274935322
 H          7.4993423319        0.0600903776       -0.9600852907
 H          6.8271341658        2.3284226183       -0.2606860452
 H          4.4485195736        2.7584433869        0.3853724980
 H          1.6555596177        1.3749169194       -1.6781855047
 H          1.0882516029        4.3645066409        0.1668727028
 H         -1.1871534255        5.1707642986        0.7403109351
 H         -3.1374295166        3.7245404192        0.3914744709
 H         -3.3052043830        0.9168601255       -1.6665135075
 C         -4.4203014544        1.5327507080        0.0540839377
 C         -5.3837970149        2.4092227702       -0.6880078873
 C         -5.7096925581        0.9653270184       -0.4566128274
 H         -6.4801901534        0.7158934462        0.2571426742
 H         -5.6544145850        0.2860170420       -1.2946296267
 H         -5.9354209493        3.1529846170       -0.1333508880
 H         -5.1138433261        2.7132520777       -1.6879488044
 H         -4.3203527649        1.6675287360        1.1251081503
