  62
        -98.94315418
 C          2.5849597022       -0.0939229878       -0.3555370200
 C          2.6643020126       -1.1066093238        0.6361089462
 C          2.0804595162       -2.4058684037        0.2961866189
 C          1.5150022392       -2.5809038231       -0.9112456900
 C          0.8341806175       -3.8306178185       -1.3989135030
 C         -0.6248089127       -3.9419345551       -0.9342601611
 C         -0.8097988616       -4.3265558167        0.5346920745
 H         -1.8541298108       -4.6204315303        0.6577894968
 H         -0.1954824675       -5.1987328052        0.7626379096
 C         -0.4983157343       -3.1971331782        1.5266751438
 H         -0.5170565923       -2.2379053384        1.0035528144
 H         -1.2811034025       -3.1599077356        2.2886176676
 C          0.8331569486       -3.3421929077        2.2643735195
 H          0.7967625892       -4.2178614355        2.9173586913
 H          0.9718481924       -2.4572886716        2.8908476975
 C          2.0594219887       -3.4697594151        1.3523619137
 H          2.9551150523       -3.3432494075        1.9660474957
 H          2.0861196002       -4.4577950393        0.8929692851
 H         -1.1092945959       -4.7008768300       -1.5535957026
 H         -1.1206909116       -2.9856357637       -1.1227095899
 H          1.3930476324       -4.7094630831       -1.0753536703
 H          0.8489211183       -3.7886039256       -2.4902161245
 O          1.5121493764       -1.6101045444       -1.8596212029
 C          1.9989351729       -0.3356939372       -1.5985860816
 O          1.8674294881        0.4458457251       -2.5630339114
 O          3.2033211674       -0.9253381300        1.7621236473
 C          3.0358566567        1.2905333247        0.0807212387
 C          1.8720495765        1.9588891798        0.7784504335
 C          2.0121089749        2.5377853937        2.0337799927
 C          0.9128764214        3.0589415911        2.6940064632
 C         -0.3490293169        2.9765474265        2.1340721953
 C         -0.4963917543        2.4076145869        0.8735713901
 C          0.6160202392        1.9428149456        0.1900442811
 H          0.4813249632        1.5198073933       -0.7943174160
 N         -1.7563297159        2.2749290550        0.2707725536
 S         -2.0425186580        0.8591418954       -0.6159323647
 O         -1.3003680983       -0.2435078023       -0.0531879484
 O         -1.8315649398        1.1464144507       -2.0129331007
 C         -3.7874843008        0.6311704252       -0.3209397407
 C         -4.1993347489       -0.3021408797        0.6109100161
 C         -5.5558373191       -0.4535296638        0.8536980747
 C         -6.4713895536        0.3298148530        0.1674048803
 C         -6.0426992668        1.2626366742       -0.7656315398
 C         -4.6883321366        1.4173525876       -1.0149322630
 H         -4.3078152744        2.1194930886       -1.7384926020
 H         -6.7574665456        1.8674690069       -1.2998151035
 H         -7.5260891165        0.2105510813        0.3584440637
 H         -5.8913293746       -1.1806701632        1.5753880086
 H         -3.4497010904       -0.8914741053        1.1146350739
 H         -2.5227802541        2.4967644480        0.8913007890
 H         -1.2134611255        3.3426883499        2.6667650966
 H          1.0351480091        3.5049947960        3.6693006766
 H          2.9843834401        2.5527942161        2.5031997027
 H          3.8223647998        1.1257058385        0.8309279192
 C          3.5939360409        2.1749813164       -1.0131836130
 C          4.5378976177        3.2789988182       -0.6437354120
 C          5.0440968261        2.0727615174       -1.3747892793
 H          5.3200621623        2.1704114852       -2.4136825840
 H          5.6443629389        1.3594367822       -0.8290486470
 H          4.4682738437        4.2131802242       -1.1791923861
 H          4.8021384878        3.3860087449        0.3972549875
 H          2.8934245589        2.3575443423       -1.8176072255
