  62
        -98.94291476
 C         -2.4171638673       -0.2581320482        0.4037815225
 C         -1.9526707692        0.6550058427        1.3854836226
 C         -1.8863932911        2.0640770088        0.9917443095
 C         -2.2236400874        2.4170348582       -0.2614738113
 C         -2.1975966485        3.8113815863       -0.8258683935
 C         -0.8081131844        4.2524075085       -1.3073099376
 C          0.1850057011        4.5987862396       -0.1968705745
 H          1.0196348629        5.1220768049       -0.6677855864
 H         -0.2810209401        5.2908552364        0.5059812927
 C          0.7340396014        3.3794859519        0.5570958604
 H          0.5625887642        2.4808365109       -0.0404571266
 H          1.8169159027        3.4790265959        0.6697382261
 C          0.1496156893        3.1810612629        1.9557830770
 H          0.4445263715        4.0158274285        2.5959869355
 H          0.5740717358        2.2665382952        2.3763363999
 C         -1.3784484782        3.0559695492        1.9950295705
 H         -1.6661684738        2.6979808780        2.9869384180
 H         -1.8391878178        4.0293221862        1.8268889422
 H         -0.9448228744        5.1360037060       -1.9357193323
 H         -0.3869955337        3.4588965412       -1.9306854325
 H         -2.5699910376        4.5180362031       -0.0831326759
 H         -2.8767006460        3.8141165612       -1.6813605726
 O         -2.6580558222        1.5161936722       -1.1784709186
 C         -2.7268298065        0.1582991753       -0.8912513786
 O         -3.0901762954       -0.5358860471       -1.8612933216
 O         -1.6132823027        0.2993956123        2.5462768944
 C         -2.4126034235       -1.7252374507        0.8064207463
 C         -1.0081345325       -2.2403972419        0.6200196026
 C         -0.3089945456       -2.8695366261        1.6420731940
 C          1.0235403751       -3.2113716899        1.4802844021
 C          1.6918386868       -2.8983393770        0.3096403239
 C          0.9951955462       -2.2805711735       -0.7202116909
 C         -0.3485332596       -1.9856322036       -0.5754192768
 H         -0.8755803318       -1.4954429059       -1.3818229915
 N          1.7130781571       -1.8399840824       -1.8738601208
 S          2.0316026915       -0.1836359708       -1.7212246592
 O          0.8172013573        0.5775481353       -1.5200546377
 O          2.8069407054        0.1809521063       -2.8872716311
 C          3.0412686264       -0.1394850996       -0.2604524873
 C          2.4386359581        0.0591839726        0.9660638493
 C          3.2247352102        0.0385363644        2.1070565866
 C          4.5894212400       -0.1839313552        2.0018360622
 C          5.1784450297       -0.3835546100        0.7621214396
 C          4.3982431798       -0.3648230438       -0.3828573207
 H          4.8077605624       -0.5135748712       -1.3683780927
 H          6.2397230701       -0.5567501007        0.6850359453
 H          5.1958759865       -0.2019032410        2.8935607227
 H          2.7626386259        0.1892034197        3.0696779627
 H          1.3722553726        0.2224066852        1.0102382495
 H          1.1854186653       -1.9695315190       -2.7281978725
 H          2.7406639312       -3.1132057071        0.1865384343
 H          1.5542105076       -3.6960735814        2.2847443594
 H         -0.8087349733       -3.0616826472        2.5799367420
 H         -2.6245395215       -1.7282174648        1.8876494613
 C         -3.4745073041       -2.5729819092        0.1274700832
 C         -3.1597902744       -3.6113965353       -0.9035429456
 C         -3.5886041600       -4.0296617148        0.4689202878
 H         -4.5716599460       -4.4556260492        0.5978892294
 H         -2.8344269834       -4.4465400544        1.1191277041
 H         -3.8499500804       -3.7226131770       -1.7257945544
 H         -2.1281954488       -3.7587726018       -1.1833682166
 H         -4.4023864714       -2.0285404040       -0.0110959285
