  62
        -98.94129329
 C          1.7880644361        0.6456595134       -0.1215271856
 C          2.9478615527        1.1355984717        0.5355269973
 C          4.2374937550        0.6918525287       -0.0030564298
 C          4.2666237464       -0.1479021910       -1.0531844670
 C          5.5012455759       -0.6751495125       -1.7324210385
 C          6.1157791432       -1.9027603875       -1.0461546224
 C          6.8277157565       -1.6202581878        0.2774826786
 H          7.3944970298       -2.5175824678        0.5338389735
 H          7.5456471268       -0.8114950151        0.1371898992
 C          5.8875860875       -1.2810152420        1.4426971044
 H          4.8709837914       -1.5941469104        1.1932212465
 H          6.1870744210       -1.8459924975        2.3283420348
 C          5.8694276674        0.1969237901        1.8330327586
 H          5.1446000255        0.3294008193        2.6402005752
 H          6.8517365348        0.4878742221        2.2117907367
 C          5.4854725606        1.1470572375        0.6912637591
 H          6.3068563913        1.2315007019       -0.0200725215
 H          5.2885655797        2.1334312159        1.1184307879
 H          5.3291061306       -2.6439195214       -0.8863112223
 H          6.8417078823       -2.3337920692       -1.7395660000
 H          6.2480272759        0.1165152826       -1.8012805453
 H          5.2020872984       -0.9602506717       -2.7434647417
 O          3.1359541168       -0.6115368455       -1.6448644795
 C          1.8715424894       -0.2478292210       -1.1911287141
 O          0.9451614732       -0.7814020981       -1.8286474236
 O          2.9053121218        1.9111030710        1.5265247381
 C          0.4445070811        1.0845441759        0.4349161526
 C         -0.4465238894       -0.1065678460        0.6676042757
 C         -0.2648072811       -0.8948837428        1.7996316453
 C         -1.0738256796       -1.9906519072        2.0400329569
 C         -2.0819069131       -2.3257650272        1.1523057340
 C         -2.2586576631       -1.5543255400        0.0135748781
 C         -1.4543139902       -0.4484434646       -0.2203093584
 H         -1.5974581210        0.1356550286       -1.1161817778
 N         -3.3124428513       -1.8761949416       -0.8787767084
 S         -4.8141731078       -1.3860275835       -0.3194590983
 O         -5.1442637424       -2.1581527332        0.8507500539
 O         -5.7207675067       -1.4951522404       -1.4397824316
 C         -4.5750590389        0.3258550479        0.1235281327
 C         -4.7519105651        1.2955156413       -0.8431469631
 C         -4.4603848221        2.6137915249       -0.5317526514
 C         -3.9850173186        2.9351929340        0.7306474212
 C         -3.8111023237        1.9493370235        1.6901051441
 C         -4.1063507671        0.6301954832        1.3860190326
 H         -3.9837561226       -0.1645208933        2.1036156587
 H         -3.4374001062        2.2016798267        2.6694947510
 H         -3.7475079755        3.9604045121        0.9685973258
 H         -4.5963568846        3.3839173802       -1.2741514897
 H         -5.1222724612        1.0024756200       -1.8126571239
 H         -3.1628548378       -1.4972039455       -1.8040152401
 H         -2.7370879132       -3.1636189389        1.3276657345
 H         -0.9207313429       -2.5883382260        2.9258700322
 H          0.5234952343       -0.6376573768        2.4937277925
 H          0.6916244896        1.5213113670        1.4159162482
 C         -0.2522261589        2.1791649050       -0.3606471371
 C          0.5354883896        3.2961543418       -0.9745157321
 C         -0.1589298912        2.2993014901       -1.8510416287
 H         -1.0388810961        2.6184009719       -2.3907668477
 H          0.4382099584        1.5753441081       -2.3831106434
 H          0.1400497597        4.2988190219       -0.9187533966
 H          1.6119313977        3.2445152672       -0.8989074557
 H         -1.2063774663        2.4459148052        0.0847008909
