  62
        -98.93388144
 C         -1.7896089989       -0.9853629732        0.4228124037
 C         -2.3778253846        0.1527258407        1.0265156017
 C         -3.8392707366        0.3134176421        0.9017982387
 C         -4.5351818574       -0.6269474620        0.2366744179
 C         -6.0118231600       -0.6669777727       -0.0548862230
 C         -6.4201715983        0.2986200023       -1.1788896263
 C         -5.7925244704        1.6873446496       -1.0928765862
 H         -4.7050939753        1.5912771342       -1.0990209966
 H         -6.0739119203        2.2355634284       -1.9959150096
 C         -6.2213230356        2.5217076130        0.1118387009
 H         -5.7746747315        3.5125548951       -0.0049339904
 H         -7.3067419379        2.6432942752        0.0960142650
 C         -5.8129199427        1.9775694284        1.4825299780
 H         -6.4614280039        1.1620374030        1.7911496917
 H         -5.9596578614        2.7823192531        2.2089908632
 C         -4.3507937660        1.5558699562        1.5901165761
 H         -3.7128577231        2.3777621908        1.2447339656
 H         -4.1016179007        1.4278996752        2.6506929108
 H         -6.1172309437       -0.1440845488       -2.1308078693
 H         -7.5078267441        0.3875970700       -1.1789494774
 H         -6.2402886208       -1.6866585509       -0.3727496838
 H         -6.5769814807       -0.4682413528        0.8508576472
 O         -3.9302358798       -1.7112097719       -0.3225949059
 C         -2.5623956989       -1.9247088305       -0.2606264699
 O         -2.1924213092       -2.9631874546       -0.8371674032
 H          1.6040158044        0.8118640047        0.5720110618
 C          1.3781111029        0.4675842731       -0.4260084517
 C          0.4187630261       -0.5155483521       -0.6213976328
 C          0.1113586048       -0.9061975196       -1.9221718096
 C          0.7543941001       -0.3233015991       -2.9979466087
 C          1.7163703920        0.6519830641       -2.8004100975
 C          2.0239871025        1.0561197273       -1.5064686482
 N          2.9775776715        2.0561089452       -1.2876212677
 S          3.8956764454        2.1172830978        0.0991591473
 O          3.1128372237        2.5992312091        1.2089901982
 O          5.0349649019        2.9306958557       -0.2690104079
 C          4.4349444033        0.4455835347        0.4151316643
 C          4.3579593344       -0.0519726612        1.7000285802
 C          4.8151786841       -1.3360677320        1.9527403891
 C          5.3338686677       -2.0996914101        0.9186821849
 C          5.4023772680       -1.5868270523       -0.3675252349
 C          4.9544263514       -0.3010873693       -0.6241266638
 H          5.0057028695        0.1244190757       -1.6128354746
 H          5.8030632094       -2.1843854946       -1.1702413838
 H          5.6822350611       -3.1007963419        1.1163525784
 H          4.7583289882       -1.7359523151        2.9524040706
 H          3.9350594531        0.5707797644        2.4724802278
 H          3.4769756937        2.3741985922       -2.1039424208
 H          2.2153956598        1.1088404948       -3.6412457991
 H          0.5070547035       -0.6339152363       -4.0018093646
 H         -0.6372808231       -1.6684126082       -2.0758674795
 C         -0.2842077123       -1.1323114839        0.5606675167
 H         -0.0261072582       -0.5279093007        1.4450544218
 C          0.1551720643       -2.5630880221        0.8417234724
 C          0.9915958361       -3.3771212226       -0.0955459804
 C          1.5917361111       -2.8454492119        1.1685913764
 H          1.8156106474       -3.5333792111        1.9693313932
 H          2.2859754776       -2.0225922342        1.0836695558
 H          0.7724485797       -4.4313920554       -0.1662869869
 H          1.2958278340       -2.9327908907       -1.0294650997
 H         -0.5897473818       -3.1086038506        1.4118388842
 O         -1.7057009853        1.0139294561        1.6583117522
