  62
        -98.94530730
 C          2.3742704093        0.2972644404        0.0928239790
 C          1.5452344091       -0.3296541305       -0.8640768902
 C          1.5197841697       -1.8029290405       -0.8527337293
 C          2.2308310604       -2.4635362196        0.0773693709
 C          2.4303260711       -3.9490239894        0.2634870817
 C          1.2640540314       -4.8908663501       -0.0434129871
 C         -0.1083178686       -4.3883786004        0.4270221532
 H          0.0076611513       -3.5076855299        1.0628695526
 H         -0.5859295680       -5.1633197002        1.0298393940
 C         -1.0450556593       -4.0386657915       -0.7300992266
 H         -2.0730396091       -4.0373347817       -0.3589776961
 H         -0.9700528794       -4.8098007620       -1.5003811461
 C         -0.7882844102       -2.6676158718       -1.3494406076
 H         -0.9911559101       -1.9006654014       -0.5980479980
 H         -1.5008388006       -2.5214831126       -2.1652187974
 C          0.6362209195       -2.4431919216       -1.8861326284
 H          0.5780058388       -1.7263018622       -2.7096439889
 H          1.0648797597       -3.3681061617       -2.2651863480
 H          1.4935518120       -5.8381932497        0.4483719034
 H          1.2266771109       -5.0933565908       -1.1125436969
 H          2.7220090017       -4.0649038186        1.3109190617
 H          3.2942758310       -4.2441440795       -0.3411719685
 O          2.9733246906       -1.8127627887        1.0208684201
 C          3.0627217300       -0.4335966486        1.0567696991
 O          3.7769638903        0.0153325623        1.9784964385
 O          0.8709843784        0.3134563286       -1.7114494303
 C          2.4880053387        1.8107664405        0.1220605179
 C          1.1175041585        2.4354708000        0.2177121681
 C          0.7394191977        3.5648756094       -0.4982224024
 C         -0.5407477525        4.0773922389       -0.3759578022
 C         -1.4750049719        3.4640449691        0.4386596887
 C         -1.1031629910        2.3387229897        1.1650368692
 C          0.1918558291        1.8557435502        1.0755328389
 H          0.4679126697        0.9836920207        1.6506609694
 N         -2.0215436804        1.6570539099        1.9912169801
 S         -2.3771872399        0.0691629095        1.5852426513
 O         -3.3691032193       -0.3502147103        2.5525927321
 O         -1.1673273096       -0.7098023401        1.5378934413
 C         -3.1429449407        0.1791441581       -0.0238477584
 C         -4.5153316607        0.0367641675       -0.1040207876
 C         -5.1360830013        0.1705293064       -1.3348671874
 C         -4.3773489820        0.4535006760       -2.4607852880
 C         -3.0026473620        0.5988838966       -2.3620460987
 C         -2.3721664314        0.4628716377       -1.1340452389
 H         -1.3008351914        0.5614321482       -1.0494191295
 H         -2.4038314425        0.8171692963       -3.2316455191
 H         -4.8586429725        0.5600135751       -3.4202228978
 H         -6.2052314613        0.0550230059       -1.4115042769
 H         -5.0616632502       -0.1844920922        0.7986665428
 H         -2.8875032405        2.1591193296        2.1348485102
 H         -2.4818672820        3.8466720087        0.5127412589
 H         -0.8201000431        4.9551423184       -0.9383393726
 H          1.4465729072        4.0408719792       -1.1576439531
 H          3.0442016990        2.0566466713        1.0391099575
 C          3.2828331379        2.2913378900       -1.0758263528
 C          4.1338999475        3.5209935705       -0.9794909840
 C          4.7756959780        2.1686703607       -1.0465277534
 H          5.2883755877        1.8822181203       -1.9524562635
 H          5.2194024386        1.7639382615       -0.1481485533
 H          4.2109540468        4.1643650899       -1.8430521445
 H          4.1546277377        4.0430625511       -0.0347861144
 H          2.7825676476        2.0844365892       -2.0150494624
