  62
        -98.94941841
 C          1.3828985295        1.5798687525        0.2774876024
 C          1.6281686418        0.5844875501        1.2534509920
 C          2.7760631882       -0.2957786369        1.0079392104
 C          3.5149375786       -0.1157758485       -0.1016779061
 C          4.6987190997       -0.9526816261       -0.4896417009
 C          4.2936012908       -2.1200527709       -1.3991665587
 C          3.1152815905       -2.9419383209       -0.8754923760
 H          2.2022596738       -2.3418632365       -0.9068302603
 H          2.9651990107       -3.7719443991       -1.5702476152
 C          3.3013339142       -3.4957572299        0.5439034357
 H          2.9594434634       -4.5328703094        0.5573423053
 H          4.3597698119       -3.4973892163        0.8092238411
 C          2.5032431888       -2.7526234263        1.6170486927
 H          2.4829265702       -3.3716972497        2.5183896694
 H          1.4716184263       -2.6357315924        1.2728271953
 C          3.0486344115       -1.3748640141        2.0168318653
 H          4.1176978416       -1.4492073093        2.2278695498
 H          2.5377707045       -1.0660213870        2.9336901567
 H          5.1610319494       -2.7707456392       -1.5282481071
 H          4.0204221195       -1.7193236655       -2.3781934544
 H          5.4048211837       -0.3166438987       -1.0268508213
 H          5.1784233614       -1.3308337260        0.4111698996
 O          3.2457421966        0.8444555695       -1.0225728185
 C          2.1512709879        1.6865829595       -0.8812453396
 O          1.9846275302        2.4723643138       -1.8336744822
 O          0.9148408320        0.4393775713        2.2839400172
 C          0.1690520374        2.4754332892        0.4421089162
 C         -0.8835651476        2.1177846265       -0.5809523633
 C         -1.7141788442        3.0495343802       -1.1909525528
 C         -2.6750801172        2.6376752862       -2.0990499132
 C         -2.8451725398        1.2987820227       -2.4029931787
 C         -2.0210906874        0.3586022427       -1.7944976355
 C         -1.0536185361        0.7775272536       -0.8970591234
 H         -0.4034917238        0.0410798592       -0.4533926645
 N         -2.1400707377       -1.0104838906       -2.0717025188
 S         -1.8344546122       -2.1412302158       -0.8775416904
 O         -0.4236148015       -2.2146474109       -0.5965155621
 O         -2.4402360761       -3.3550696912       -1.3832881481
 C         -2.7537929566       -1.5660204024        0.5386602033
 C         -2.1220559532       -0.9966286438        1.6245966860
 C         -2.8961277199       -0.5244037243        2.6742100590
 C         -4.2766492813       -0.6279992932        2.6224644934
 C         -4.8965897989       -1.2096364412        1.5262894295
 C         -4.1301359838       -1.6804105272        0.4740561154
 H         -4.5713883676       -2.1516716840       -0.3892528064
 H         -5.9706182216       -1.2948822745        1.4893156188
 H         -4.8713010034       -0.2561170817        3.4418742002
 H         -2.4043788355       -0.0742813429        3.5219081302
 H         -1.0462715457       -0.9171403669        1.6518165342
 H         -2.9275403398       -1.2684936053       -2.6470497446
 H         -3.5965888802        0.9831477681       -3.1102371449
 H         -3.3079571074        3.3720914063       -2.5736215899
 H         -1.6039707129        4.0969285670       -0.9624042501
 H         -0.2404855901        2.2262129892        1.4337417831
 C          0.5524108073        3.9397052298        0.4302212456
 C         -0.2283520150        4.9319584666        1.2380869609
 C          1.1526681182        4.5391808585        1.6657717440
 H          1.9541049164        5.2539059865        1.5545785474
 H          1.2592493513        3.8961433924        2.5273622136
 H         -0.3748555597        5.9227139975        0.8350136450
 H         -1.0603673900        4.5621759451        1.8180640883
 H          0.9547014486        4.2571246630       -0.5247162832
