  62
        -98.94434260
 C         -1.6113167752       -1.3807103558        0.5346417883
 C         -1.6145711518       -0.0759823178        1.0912853175
 C         -2.7460549534        0.7796894757        0.7199471814
 C         -3.7045363206        0.3009791479       -0.0938410586
 C         -4.9399478313        1.0371613919       -0.5367365004
 C         -4.7236701583        1.9421199062       -1.7572391008
 C         -3.9186358851        3.2135696153       -1.4868210135
 H         -4.0240490134        3.8521565019       -2.3660904275
 H         -4.3573384182        3.7465631116       -0.6427729563
 C         -2.4249836505        2.9721534474       -1.2267723178
 H         -2.1500919320        1.9742608248       -1.5769109178
 H         -1.8350027917        3.6857803851       -1.8057826761
 C         -2.0022521650        3.1177682163        0.2349604338
 H         -2.1472990057        4.1515196248        0.5553154853
 H         -0.9370666270        2.8855895514        0.3050044532
 C         -2.7491847480        2.1965310987        1.2082193019
 H         -2.2285007679        2.2182585696        2.1683485054
 H         -3.7706359058        2.5471823515        1.3541683259
 H         -4.2334927971        1.3595381370       -2.5408220187
 H         -5.7099224722        2.2324030334       -2.1268797159
 H         -5.6775221021        0.2757247674       -0.7994983863
 H         -5.3309371139        1.6283305058        0.2917389082
 O         -3.6648304396       -0.9557348970       -0.6085105774
 C         -2.6042165850       -1.8126761309       -0.3449185741
 O         -2.6834666469       -2.9048353157       -0.9386364262
 O         -0.7180406169        0.3492333029        1.8667997851
 C         -0.4321758150       -2.2822459483        0.8637518370
 C          0.5002743486       -2.2786320323       -0.3227229127
 C          0.5026640863       -3.2747484396       -1.2911699804
 C          1.3486937807       -3.1818928231       -2.3822833253
 C          2.2182722101       -2.1146156391       -2.5166196989
 C          2.2233887063       -1.1126368496       -1.5523052369
 C          1.3583529856       -1.1956839704       -0.4731771436
 H          1.3497328643       -0.4084204981        0.2661736072
 N          3.0875134690       -0.0117969562       -1.6564032745
 S          3.8885710336        0.5325590418       -0.2867034139
 O          5.0825936252        1.1708452700       -0.8018653888
 O          4.1011710078       -0.5388833677        0.6581852034
 C          2.8353660837        1.7872100944        0.4054661431
 C          2.4101129611        1.6844052605        1.7139183460
 C          1.6299013857        2.6975826935        2.2472691206
 C          1.2954000383        3.7921003993        1.4664283298
 C          1.7316450775        3.8815933368        0.1521951740
 C          2.5096218670        2.8708605188       -0.3867090038
 H          2.8731871954        2.9054472811       -1.4003534838
 H          1.4633542316        4.7338464804       -0.4514033720
 H          0.6869038558        4.5789207619        1.8839134812
 H          1.2796301394        2.6206317502        3.2636287302
 H          2.6878934516        0.8144290181        2.2877580702
 H          3.7052907167       -0.0371367560       -2.4549285892
 H          2.8871438863       -2.0528276591       -3.3620233084
 H          1.3382513824       -3.9575003758       -3.1333649663
 H         -0.1732302499       -4.1089643468       -1.1998055000
 H          0.0888208350       -1.7844238659        1.6935727601
 C         -0.8451220067       -3.6660198341        1.3149825900
 C          0.1695076153       -4.5420018891        1.9852130985
 C         -0.9558672448       -3.9542217748        2.7809710523
 H         -1.7459146099       -4.6083309163        3.1181808289
 H         -0.7302212509       -3.1520871993        3.4684543808
 H          0.1553973291       -5.6010618840        1.7779827223
 H          1.1599651794       -4.1354935969        2.1278439287
 H         -1.5705512371       -4.1365662914        0.6637329996
