  62
        -98.94121540
 C         -1.4853660588       -1.5849395421       -0.2115780010
 C         -2.6439776896       -1.2647738309        0.5375648186
 C         -3.4832407546       -0.1570276322        0.0423464633
 C         -3.1083269624        0.4844917865       -1.0796045516
 C         -3.7771318702        1.6562416557       -1.7477083902
 C         -3.5220229609        2.9899685742       -1.0228414897
 C         -3.5652209429        2.9157747968        0.5016301898
 H         -2.8604963194        2.1566042858        0.8463324196
 H         -3.2256694167        3.8788581910        0.8918399233
 C         -4.9436705575        2.6386527820        1.0970167356
 H         -4.8398040669        2.6556794528        2.1849294874
 H         -5.6232024549        3.4467797302        0.8161177250
 C         -5.5877855523        1.3100257918        0.6999263086
 H         -5.9578957569        1.3477195451       -0.3210200582
 H         -6.4624793767        1.1678167305        1.3415729901
 C         -4.7012176946        0.0845086710        0.9003196634
 H         -5.3217733765       -0.8139354258        0.7950219995
 H         -4.3442979594        0.0678081219        1.9362344386
 H         -4.2545693779        3.7184212459       -1.3741948874
 H         -2.5308711305        3.3477730798       -1.3111113300
 H         -3.3617140253        1.7229982008       -2.7558472517
 H         -4.8418314887        1.4636077606       -1.8446857046
 O         -1.9819525190        0.1444670749       -1.7672772801
 C         -1.1448743273       -0.8812444608       -1.3655802329
 O         -0.1641360274       -1.0522162720       -2.1155875634
 O         -2.9700252035       -1.8792419713        1.5880081606
 C         -0.5846743435       -2.6926462759        0.3126163404
 C          0.6665503440       -2.0357328693        0.8394347335
 C          0.6958843845       -1.5546074600        2.1454211615
 C          1.7896802487       -0.8516224228        2.6161381614
 C          2.8656508019       -0.5887666688        1.7859500635
 C          2.8375246285       -1.0536654573        0.4780411671
 C          1.7582541158       -1.7952955199        0.0192154288
 H          1.7486161701       -2.1395972177       -1.0025220155
 N          3.8933805856       -0.7253499319       -0.3942530408
 S          4.3074763274        0.8982539165       -0.4403876632
 O          4.7690851760        1.1446050957       -1.7889789619
 O          5.2666495539        1.1716502995        0.6023600366
 C          2.8034301046        1.8054131331       -0.1112762208
 C          1.6916798131        1.5632320726       -0.8932500682
 C          0.5229655435        2.2577109536       -0.6266974266
 C          0.4826357320        3.1786148512        0.4080942518
 C          1.6097833301        3.4157509325        1.1794282216
 C          2.7809742559        2.7226231386        0.9202666869
 H          3.6775871308        2.8693269329        1.5003967451
 H          1.5770541280        4.1334601004        1.9831991861
 H         -0.4333953395        3.7103393358        0.6132382710
 H         -0.3511363247        2.0589448321       -1.2266244944
 H          1.7252037823        0.8341020550       -1.6877525393
 H          3.7537817903       -1.0766905920       -1.3312503082
 H          3.7183662200       -0.0225536686        2.1245711557
 H          1.8007413433       -0.4920357791        3.6336090168
 H         -0.1602567030       -1.7244239973        2.7827847007
 H         -1.1263517019       -3.1325971880        1.1600143002
 C         -0.3265334947       -3.7735038243       -0.7152987232
 C          0.2695187478       -5.0746919815       -0.2707043367
 C         -1.1650912995       -5.0149066824       -0.6990127193
 H         -1.4418159786       -5.4614181517       -1.6424058178
 H         -1.9289288598       -5.0930291975        0.0606748492
 H          0.9803726761       -5.5653355661       -0.9178913017
 H          0.4802584604       -5.1910150606        0.7816209937
 H         -0.0372706793       -3.3904585496       -1.6859286673
