  62
        -98.94505653
 C         -1.5353853575       -0.7817888443       -0.4583438343
 C         -2.8314506493       -1.3468419080       -0.4888595824
 C         -3.9436918148       -0.3930159027       -0.5979235398
 C         -3.6755891384        0.9235270078       -0.6759373215
 C         -4.7134681267        2.0059070932       -0.7397020711
 C         -5.0806961518        2.5069608391        0.6640197899
 C         -5.4012937916        1.3876579691        1.6545106890
 H         -4.4964661713        0.8034495615        1.8370502736
 H         -5.6755055355        1.8588079620        2.6009146178
 C         -6.5288398250        0.4472281421        1.2065320354
 H         -7.1150331298        0.9204232928        0.4179240569
 H         -7.1999625176        0.2774076000        2.0512115418
 C         -6.0566050663       -0.9277584612        0.7300887652
 H         -5.3934574147       -1.3675182679        1.4795073536
 H         -6.9317307585       -1.5779512862        0.6474882618
 C         -5.3375527468       -0.9544451837       -0.6247105504
 H         -5.2328471137       -2.0015654667       -0.9239429871
 H         -5.9457324109       -0.4432767635       -1.3738138756
 H         -4.2390903405        3.0812113594        1.0578942986
 H         -5.9388585654        3.1760787775        0.5785655498
 H         -5.5991598845        1.6241824077       -1.2438115359
 H         -4.3075867218        2.8376756976       -1.3176935803
 O         -2.4155918766        1.4276164562       -0.6577256692
 C         -1.3122068449        0.5936030586       -0.5364962425
 O         -0.2187944498        1.1852503662       -0.5130180255
 O         -3.0483418601       -2.5874942922       -0.4228826901
 C         -0.3310565744       -1.6975952316       -0.3436921998
 C          0.5083724636       -1.3042999900        0.8457216981
 C         -0.1125969287       -1.0939800797        2.0747787727
 C          0.6193439203       -0.7054383562        3.1791636820
 C          1.9858452896       -0.5069319386        3.0816391733
 C          2.6178767228       -0.7311853246        1.8652904082
 C          1.8816039069       -1.1418343175        0.7616251317
 H          2.4012868482       -1.3334234285       -0.1610136912
 N          4.0014180595       -0.5584694311        1.7389393312
 S          4.6942345632       -0.1260663034        0.2846021049
 O          4.7603059542       -1.2697896423       -0.5911442226
 O          5.9708809034        0.4438398830        0.6617809160
 C          3.6598085723        1.1372654248       -0.4319002163
 C          3.2266907898        0.9977890039       -1.7337725801
 C          2.4471336080        1.9964077995       -2.2926286604
 C          2.1130543410        3.1110972623       -1.5419571832
 C          2.5574328439        3.2377569040       -0.2360040369
 C          3.3399145011        2.2441754655        0.3271334442
 H          3.7013897708        2.3188932796        1.3401391189
 H          2.2884272550        4.1043055743        0.3464901929
 H          1.4954987484        3.8817472106       -1.9753531076
 H          2.0937294293        1.8969283731       -3.3070086273
 H          3.5020741080        0.1095849800       -2.2810041222
 H          4.4610769604       -0.1298540149        2.5278426871
 H          2.5574077378       -0.1877160541        3.9395326173
 H          0.1220335391       -0.5436624264        4.1237797295
 H         -1.1826153278       -1.2335326054        2.1493043823
 H         -0.7380547077       -2.7045880821       -0.1677114224
 C          0.4426197470       -1.7029453481       -1.6455472473
 C          1.2484703576       -2.9020172312       -2.0436878452
 C         -0.0207013137       -2.5763045020       -2.7710074868
 H          0.0432628921       -2.1963176022       -3.7795417262
 H         -0.8863853156       -3.1974598025       -2.5927703986
 H          2.1917063159       -2.7483717145       -2.5468955492
 H          1.2464351815       -3.7496097035       -1.3748643272
 H          0.8274058056       -0.7208318329       -1.8991602103
