  62
        -98.93857286
 C         -2.3986939529       -1.2231092114       -0.0870984050
 C         -3.4477608807       -0.7571349873        0.7446298236
 C         -4.3195838269        0.2892365544        0.1878765124
 C         -4.0773098866        0.7568005617       -1.0485739813
 C         -4.8467588359        1.7910407483       -1.8319237709
 C         -5.3278842124        3.0387571720       -1.0797076667
 C         -4.3920126480        3.5232908241        0.0373169561
 H         -4.1952191776        4.5880657184       -0.1016152639
 H         -3.4326844586        3.0059525304       -0.0263959516
 C         -4.9836952706        3.3334860682        1.4361294860
 H         -6.0344524961        3.6306233659        1.4147760878
 H         -4.4680488353        4.0034127664        2.1283004156
 C         -4.8743712916        1.9206848088        2.0079820948
 H         -5.4266713592        1.8957205294        2.9503355253
 H         -3.8300798380        1.6966441928        2.2422264073
 C         -5.3994720817        0.7966442462        1.0999085143
 H         -6.2779700994        1.1157260727        0.5447058565
 H         -5.6766071584       -0.0475740694        1.7369232192
 H         -6.3157517089        2.8538688371       -0.6602975168
 H         -5.4454338493        3.8281745075       -1.8240540235
 H         -4.1762400770        2.0883931491       -2.6420755533
 H         -5.7073442081        1.2966761961       -2.2922136697
 O         -3.0491778756        0.2890128069       -1.8111450724
 C         -2.1853288758       -0.6965725877       -1.3597703407
 O         -1.3020187791       -1.0045594493       -2.1846592235
 H          0.7199844511       -2.0110369761       -1.1407594557
 C          0.8655996644       -1.5710777375       -0.1667300492
 C         -0.1445231158       -1.6456341787        0.7801572787
 C          0.0535649698       -1.0339692014        2.0147998528
 C          1.2344856786       -0.3711038627        2.2926240835
 C          2.2373008762       -0.2925832418        1.3417502004
 C          2.0411220278       -0.8829173637        0.1010388436
 N          3.0452273423       -0.7854553360       -0.8803286055
 S          3.6389141210        0.7505123477       -1.2185999757
 O          2.6671823496        1.7785070486       -0.9234213866
 O          4.1162774005        0.6841285000       -2.5828700267
 C          5.0406486106        0.9029342569       -0.1290319557
 C          5.1237096946        1.9684289987        0.7457379845
 C          6.2277790033        2.0677487245        1.5783833406
 C          7.2244821963        1.1058065174        1.5206613599
 C          7.1276137315        0.0433314005        0.6342685663
 C          6.0270811508       -0.0612682223       -0.2011282561
 H          5.9146074346       -0.8674864725       -0.9064838504
 H          7.9049572832       -0.7024604260        0.5918389703
 H          8.0818698736        1.1848867465        2.1702293594
 H          6.3046987422        2.8934340121        2.2674717336
 H          4.3215963971        2.6893819282        0.7587368502
 H          2.8006644038       -1.2564176347       -1.7403714594
 H          3.1558892967        0.2329074018        1.5457255987
 H          1.3755776456        0.0936524225        3.2566005190
 H         -0.7392273253       -1.0718882342        2.7486940778
 C         -1.4733265511       -2.2912464749        0.4741927390
 H         -1.9299149825       -2.5964124542        1.4251759704
 C         -1.3698863078       -3.5043842612       -0.4258211083
 C         -0.7857573962       -4.7708044327        0.1227688384
 C         -2.2537060663       -4.6857314379       -0.1652016302
 H         -2.6473856960       -5.2293300059       -1.0109829832
 H         -2.9361940082       -4.6246724650        0.6697067020
 H         -0.4707796205       -4.7654641299        1.1551925755
 H         -0.1688005720       -5.3764634702       -0.5231256116
 H         -1.1693971306       -3.2599994204       -1.4615465001
 O         -3.6565633044       -1.2078800778        1.9017269727
