  62
        -98.93245118
 C          2.4896291701        1.4716123908        0.3302574492
 C          2.7786033001        0.6213121067       -0.7646419083
 C          3.8359698917       -0.3821401756       -0.5434251612
 C          4.4551892572       -0.4424428037        0.6484277010
 C          5.4831847551       -1.4613687178        1.0505246738
 C          4.7940948200       -2.7977190176        1.3934741819
 C          5.1329996639       -3.9455746852        0.4419221300
 H          4.4323076294       -4.7576925355        0.6471304587
 H          6.1365002344       -4.3108996738        0.6697897628
 C          5.0854008845       -3.6120570459       -1.0523744766
 H          5.0823903134       -4.5624327634       -1.5904169655
 H          6.0007052052       -3.0940515043       -1.3424524185
 C          3.8829487579       -2.7801170606       -1.5168989179
 H          3.0431992060       -2.9023371517       -0.8321360556
 H          3.5594314821       -3.1629256493       -2.4871859366
 C          4.1759757116       -1.2790738815       -1.7019232113
 H          3.5707626960       -0.9052358958       -2.5333231958
 H          5.2262301404       -1.1426376134       -1.9738634271
 H          3.7143056491       -2.6342083548        1.3990111366
 H          5.0701999527       -3.1000663777        2.4047154347
 H          6.2025029467       -1.5961924324        0.2458428206
 H          6.0045339668       -1.0681183026        1.9234088596
 O          4.1515323646        0.3915041016        1.6763130367
 C          3.1724026277        1.3595684299        1.5454893737
 O          3.0057216825        2.0575063563        2.5650601899
 H          0.1894254836        0.4651039222       -0.8688645312
 C         -0.4247151510        0.9265866714       -0.1094551785
 C          0.0643560936        2.0262688550        0.5823697292
 C         -0.7450453089        2.6203532700        1.5431312434
 C         -2.0105956453        2.1229636913        1.8019012689
 C         -2.4926925098        1.0253147352        1.1116590554
 C         -1.6922903176        0.4249153184        0.1484028105
 N         -2.1667821408       -0.6982211175       -0.5529897871
 S         -3.6692305287       -0.5754929628       -1.2950782036
 O         -3.6442491700       -1.5418128407       -2.3708519829
 O         -3.9652794114        0.7899614335       -1.6628011859
 C         -4.8082852226       -1.1314836890       -0.0442920363
 C         -4.6105277471       -2.3826194625        0.5063201671
 C         -5.4913916519       -2.8337185567        1.4761903544
 C         -6.5510296343       -2.0321736016        1.8744763243
 C         -6.7387294046       -0.7804482785        1.3086756097
 C         -5.8603368335       -0.3227575939        0.3386871205
 H         -5.9630864137        0.6453525836       -0.1251032870
 H         -7.5635481057       -0.1593751002        1.6190724433
 H         -7.2345341769       -2.3856452928        2.6302450382
 H         -5.3487198095       -3.8067282709        1.9181536767
 H         -3.7774687126       -2.9751871723        0.1667643348
 H         -1.4872672044       -1.0801286898       -1.1958911397
 H         -3.4769792318        0.6336837734        1.3098445008
 H         -2.6283491494        2.5934857262        2.5514013884
 H         -0.3716491371        3.4709232589        2.0945537566
 C          1.4377834315        2.5688955030        0.2801943845
 H          1.7071880413        3.2576223442        1.0960945871
 C          1.4849252180        3.3688802776       -1.0164050344
 C          0.4051125989        3.3493445034       -2.0525115384
 C          0.5922813850        4.5614597209       -1.1933293418
 H          1.0027125504        5.4559304020       -1.6367053355
 H         -0.1467717411        4.7450889129       -0.4279388842
 H         -0.4652053221        2.7336701662       -1.8840875887
 H          0.7074552847        3.3913719485       -3.0880725196
 H          2.4993510541        3.4652231886       -1.3905639822
 O          2.1940613406        0.6747564492       -1.8790662144
