  62
        -98.94116615
 C          1.9522190701        0.9058026146       -0.2139966692
 C          2.5761551698        0.3139371015        0.9150090018
 C          2.8991417930       -1.1135400095        0.8184935039
 C          2.5538584157       -1.7859598665       -0.2940070576
 C          2.8483898887       -3.2359592899       -0.5472311206
 C          4.1955483205       -3.4152858598       -1.2613598248
 C          5.3447671892       -2.6430258649       -0.6133770171
 H          6.2487956707       -2.8664160233       -1.1838789976
 H          5.1549925255       -1.5722208614       -0.7164558889
 C          5.5779058232       -2.9759970379        0.8668625329
 H          6.6496223200       -3.1042834561        1.0321256779
 H          5.0956312781       -3.9223879561        1.1135644943
 C          5.1029741436       -1.8970227041        1.8417957672
 H          5.5087012434       -0.9278128643        1.5415627605
 H          5.5076589303       -2.1298883978        2.8302272128
 C          3.5829236202       -1.7554248882        1.9931878946
 H          3.1406891378       -2.7304432888        2.2084975183
 H          3.3922579277       -1.0962576208        2.8451471654
 H          4.4354143474       -4.4798899726       -1.2826384902
 H          4.0880503954       -3.0695984285       -2.2920859004
 H          2.8528523275       -3.7688840695        0.4018100811
 H          2.0533014688       -3.6406952456       -1.1760955874
 O          1.9346374374       -1.1976041722       -1.3466669803
 C          1.6148909963        0.1544872540       -1.3405565354
 O          1.0611056892        0.5323326130       -2.3923442984
 H         -0.7188921550        1.1601503026       -0.8243733083
 C         -0.8498924888        1.8241210409        0.0170880689
 C          0.2272777372        2.5391175244        0.5200902195
 C          0.0181786263        3.3949310756        1.5953791508
 C         -1.2371567762        3.5195504054        2.1629392989
 C         -2.3001706758        2.7760271177        1.6843924213
 C         -2.1020892865        1.9214188958        0.6053067619
 N         -3.1578752345        1.1530437027        0.0909050906
 S         -2.8110083299       -0.4181254744       -0.4309555899
 O         -1.7924901101       -1.0058868537        0.4103095718
 O         -2.5533209543       -0.3903892961       -1.8482042811
 C         -4.3842373367       -1.2071004836       -0.1331914314
 C         -5.3757694432       -1.1041944871       -1.0906793110
 C         -6.6093737670       -1.6853613288       -0.8429592875
 C         -6.8308949237       -2.3539250014        0.3519619954
 C         -5.8258996194       -2.4504125034        1.3027499407
 C         -4.5900654093       -1.8707865845        1.0615662458
 H         -3.7757144661       -1.9270098003        1.7661963312
 H         -5.9990566715       -2.9738132854        2.2291752960
 H         -7.7915902112       -2.8056236764        0.5421201722
 H         -7.3915436670       -1.6149742738       -1.5813875163
 H         -5.1525418710       -0.5824502691       -2.0067460503
 H         -3.9875473196        1.1829054619        0.6679525074
 H         -3.2756283423        2.8531192716        2.1400479024
 H         -1.3851573994        4.1865436726        2.9984750947
 H          0.8529986785        3.9483600716        1.9988100072
 C          1.6038837470        2.3782730470       -0.0829233531
 H          2.3277459772        2.7859590166        0.6372504798
 C          1.7085116040        3.1745700037       -1.3679293368
 C          1.9568401335        4.6504358992       -1.2927811716
 C          3.0353422201        3.7326659795       -1.7830352346
 H          3.2840319004        3.7348285990       -2.8334303259
 H          3.8794510600        3.5455103785       -1.1352232373
 H          2.0744580781        5.0904086035       -0.3143229621
 H          1.4618439853        5.2899865139       -2.0070251489
 H          1.0544772465        2.8112453747       -2.1499608679
 O          2.8589108138        0.9624386822        1.9595116794
