  62
        -98.94343459
 C         -1.6450981119       -1.3769825479        0.0143990106
 C         -0.9083822668       -2.0282558822       -1.0009307336
 C          0.4163005122       -2.5501482610       -0.6227357948
 C          0.8419945242       -2.4181173576        0.6477012279
 C          2.1152357875       -2.8810121156        1.3248143240
 C          3.3397764014       -3.2729138420        0.5023160002
 C          3.9801542997       -2.1244776464       -0.2765092735
 H          4.4353224095       -1.4308416521        0.4343723174
 H          4.7754792644       -2.5359030227       -0.9015595263
 C          3.0300611018       -1.3145161256       -1.1543608565
 H          3.6074841282       -0.5287079176       -1.6501270724
 H          2.2910818091       -0.8056240840       -0.5316386781
 C          2.2953950430       -2.0968748374       -2.2415369739
 H          3.0150627257       -2.6215766701       -2.8734947273
 H          1.7742954264       -1.3611071767       -2.8617499806
 C          1.2482983353       -3.1074355851       -1.7401824064
 H          0.5603592975       -3.3168962221       -2.5647691093
 H          1.7103802549       -4.0485762624       -1.4517432709
 H          4.0840608890       -3.6448908700        1.2113610193
 H          3.1008779977       -4.0965732383       -0.1639611314
 H          2.3924635846       -2.0745697345        2.0102544065
 H          1.8294501211       -3.7367283630        1.9463426551
 O          0.0684288511       -1.8314230385        1.6061604775
 C         -1.1543664076       -1.2518965290        1.3116332762
 O         -1.6898623958       -0.6704834110        2.2748126621
 O         -1.3374932017       -2.1657380132       -2.1790519713
 C         -2.9530129839       -0.6905419218       -0.3364513216
 C         -2.8014540295        0.7926717627       -0.0940560780
 C         -3.7383344104        1.5667587275        0.5774163540
 C         -3.4960111885        2.9110332650        0.8044886370
 C         -2.3194953544        3.5040159978        0.3854327512
 C         -1.3789163517        2.7405083125       -0.3003669379
 C         -1.6405672902        1.4033387693       -0.5541551348
 H         -0.9158614339        0.8181455477       -1.1008945634
 N         -0.1813043638        3.3235201344       -0.7351948237
 S          1.2347024138        2.5461769662       -1.1169702020
 O          2.1031012026        3.6097275376       -1.5740843728
 O          0.9908190949        1.4838635317       -2.0602304433
 C          1.9395054777        1.8647626717        0.3800063253
 C          1.1530658606        1.3007936197        1.3640437331
 C          1.7656687457        0.7439926900        2.4770486630
 C          3.1467875491        0.7521943118        2.5879250571
 C          3.9248394700        1.3260249223        1.5937586178
 C          3.3179581445        1.8875937402        0.4827607917
 H          3.8832169635        2.3488695844       -0.3105503587
 H          4.9995623388        1.3360857583        1.6801675153
 H          3.6163285203        0.3103215329        3.4529979416
 H          1.1455325304        0.2945884357        3.2372917309
 H          0.0785359735        1.2789112497        1.2708651305
 H         -0.0185058215        4.2709020162       -0.4315418855
 H         -2.1248179604        4.5463337785        0.5856466116
 H         -4.2286182525        3.5030227647        1.3316335954
 H         -4.6510791759        1.1175713005        0.9324039978
 H         -3.0916837373       -0.8526084863       -1.4159663941
 C         -4.1144217792       -1.3134730035        0.4075932847
 C         -5.4909876512       -1.2905681392       -0.1847123173
 C         -4.7218692732       -2.5750397001       -0.1254291641
 H         -5.0339309727       -3.3338652959        0.5762652869
 H         -4.3131708463       -2.9716363282       -1.0435492023
 H         -6.3357439751       -1.1704510448        0.4766983367
 H         -5.6131753399       -0.8183722502       -1.1478832626
 H         -4.0159294311       -1.2215446316        1.4833004434
