  62
        -98.94485254
 C         -1.8733670412       -1.0582682403       -0.2274046695
 C         -3.0231481513       -1.1728515602        0.5996621704
 C         -4.2553870612       -0.5503352602        0.1021076003
 C         -4.2378476111        0.0757777598       -1.0883231697
 C         -5.4014060210        0.8047841898       -1.6933792898
 C         -5.4024597210        2.2848385098       -1.2856368599
 C         -5.2315997610        2.5127920499        0.2164411801
 H         -4.2333570611        2.1849963599        0.5164203501
 H         -5.2795461510        3.5902071099        0.3891496100
 C         -6.2796394011        1.8078507300        1.0889647301
 H         -7.1410470511        1.5290453400        0.4809145801
 H         -6.6322641211        2.5095026901        1.8478546800
 C         -5.7610302312        0.5738334101        1.8296460302
 H         -4.8439459712        0.8279892900        2.3672486402
 H         -6.5078186613        0.2859712602        2.5743834602
 C         -5.4844785412       -0.6587772200        0.9597636403
 H         -5.3081894813       -1.5050172200        1.6301556004
 H         -6.3613536912       -0.8814907400        0.3483406203
 H         -6.3397628609        2.7339174198       -1.6192037200
 H         -4.5820236709        2.7877099197       -1.8030943999
 H         -5.3235929910        0.7366538797       -2.7797913098
 H         -6.3267673811        0.3288480099       -1.3746598798
 O         -3.1270245611        0.1529328196       -1.8607400997
 C         -1.9197360111       -0.3983951104       -1.4552954596
 O         -1.0000675011       -0.2260015005       -2.2814660495
 H          0.7049648489        0.3005650295       -0.9881159695
 C          0.9373097789        0.2847895195        0.0662228605
 C          0.3359675488       -0.6641558104        0.8812177105
 C          0.6328750287       -0.6566854703        2.2389340306
 C          1.5088719587        0.2770427597        2.7659331805
 C          2.1067354788        1.2205036896        1.9500825205
 C          1.8092770089        1.2250292095        0.5934750005
 N          2.4278603890        2.1729535594       -0.2501403696
 S          4.1028643590        2.0866252793       -0.2894913195
 O          4.6362669490        2.7230298794        0.8887551805
 O          4.4982834991        2.6618747692       -1.5553574695
 C          4.4499982089        0.3377728493       -0.2480643194
 C          4.1811234689       -0.4043212708       -1.3807933093
 C          4.3654304488       -1.7764299108       -1.3420866892
 C          4.8031921987       -2.3808162107       -0.1736004391
 C          5.0685246387       -1.6215552606        0.9550509608
 C          4.8887257788       -0.2480972206        0.9216558807
 H          5.0831876788        0.3794477694        1.7756289507
 H          5.4087685186       -2.0951105906        1.8615901209
 H          4.9387089086       -3.4505037107       -0.1434237291
 H          4.1614966388       -2.3674337008       -2.2208082592
 H          3.8432177489        0.0995364892       -2.2725448694
 H          2.0607600190        2.1503399894       -1.1914919796
 H          2.7980515189        1.9513695596        2.3377545505
 H          1.7288514187        0.2699834698        3.8224757005
 H          0.1625432286       -1.3841169102        2.8842634606
 C         -0.5973545813       -1.6969357304        0.2963620506
 H         -0.9250325513       -2.3516129003        1.1147584406
 C          0.1223779887       -2.5434565505       -0.7360934493
 C          1.1006891586       -3.5775559005       -0.2692556592
 C         -0.2130710014       -3.9984748905       -0.8549768992
 H         -0.2241868113       -4.4448616605       -1.8380129992
 H         -0.9669912114       -4.3935861404       -0.1896801692
 H          1.2397715786       -3.6877319704        0.7952311808
 H          1.9967424087       -3.7344445106       -0.8486379992
 H          0.3485524388       -2.0105416806       -1.6500867294
 O         -3.0170831013       -1.7779160501        1.7045017705
