  62
        -98.93771349
 C         -1.8360316033       -0.9836438414       -0.0604193914
 C         -3.1487696468       -1.3309683342        0.3304821999
 C         -4.2353922868       -0.4906878211       -0.2025672446
 C         -3.9285918527        0.5294816497       -1.0228297152
 C         -4.8729112315        1.5294306714       -1.6305446365
 C         -4.9645950450        2.7908020818       -0.7552440064
 C         -6.0087775556        2.7269761135        0.3588420479
 H         -5.8771902971        3.6167792679        0.9789684991
 H         -7.0068525505        2.7798419040       -0.0812213983
 C         -5.9356646832        1.4880840464        1.2555120193
 H         -4.8940900911        1.2724337758        1.5008992146
 H         -6.4451216468        1.7226322657        2.1922745520
 C         -6.5936452515        0.2491905533        0.6296140204
 H         -7.1825154596        0.5577474170       -0.2340551400
 H         -7.2965523601       -0.1852806387        1.3435147983
 C         -5.6271445368       -0.8730933770        0.2213455071
 H         -5.4814308047       -1.5527524991        1.0670387322
 H         -6.0857877943       -1.4649497435       -0.5778763576
 H         -5.2034087038        3.6441936156       -1.3931586336
 H         -3.9764723216        2.9722588817       -0.3242470283
 H         -5.8525144164        1.0886579521       -1.7895839550
 H         -4.4507175435        1.8084216331       -2.5981925953
 O         -2.6490086861        0.8262091033       -1.3791769613
 C         -1.5732071917        0.0922637490       -0.9080565073
 O         -0.4645122349        0.4879214984       -1.3094393860
 O         -3.4029260602       -2.2966122211        1.1014990493
 C         -0.6710540308       -1.8070650476        0.4550461870
 C          0.3126561933       -0.9403708668        1.2021073621
 C         -0.1618455152        0.0412122649        2.0681196738
 C          0.7087931484        0.8618697009        2.7590499896
 C          2.0774343398        0.7141616003        2.6150277553
 C          2.5630362796       -0.2713127746        1.7678154386
 C          1.6848496254       -1.0932300369        1.0702169820
 H          2.0825304945       -1.8518560521        0.4138073538
 N          3.9593059009       -0.4293277968        1.6323440462
 S          4.8148506713        0.7944520375        0.8725510370
 O          6.2056878267        0.4118680107        0.9593680643
 O          4.4569890646        2.0544249421        1.4703961536
 C          4.2859284129        0.7314813278       -0.8303324549
 C          5.1537701297        0.2456889096       -1.7891967151
 C          4.7129840284        0.1367591860       -3.0980180627
 C          3.4118639881        0.4940033153       -3.4204194751
 C          2.5508502797        0.9743887765       -2.4457043331
 C          2.9917705217        1.1011004782       -1.1379088535
 H          2.3345542934        1.4713256254       -0.3677731633
 H          1.5274887514        1.2265140999       -2.6733923009
 H          3.0637519627        0.3963890893       -4.4369491830
 H          5.3798181204       -0.2335183116       -3.8601965373
 H          6.1519558529       -0.0312567047       -1.4904083363
 H          4.2236905078       -1.3152803158        1.2234551152
 H          2.7710017822        1.3574019558        3.1308716981
 H          0.3200395488        1.6230669529        3.4188943952
 H         -1.2303567840        0.1595008907        2.1873555248
 H         -1.1104415222       -2.5193133232        1.1698766155
 C         -0.0423744190       -2.5851857607       -0.6832278386
 C          0.5817841164       -3.9257258489       -0.4367723055
 C         -0.7221277033       -3.8290464143       -1.1686524322
 H         -0.7370841526       -4.0291069480       -2.2294174196
 H         -1.6225178863       -4.1330366731       -0.6549505778
 H          1.4629075142       -4.1965349622       -0.9993208799
 H          0.5668764217       -4.3080996919        0.5728408851
 H          0.4082794423       -1.9377644825       -1.4277217975
