  62
        -98.93935826
 C         -1.0247275593       -1.4334406613       -0.5986451789
 C         -2.3140786194       -1.6419797711       -0.0511421290
 C         -3.2983497095       -0.5540382114       -0.2039606001
 C         -2.9203374596        0.5708921181       -0.8391848609
 C         -3.7226780998        1.8248797178       -1.0643837121
 C         -3.8605276302        2.6869511688        0.2020659072
 C         -4.1349728604        1.9113620898        1.4877598377
 H         -3.3496834803        1.1672281300        1.6330056085
 H         -4.0741579207        2.6161624204        2.3212765772
 C         -5.4991455403        1.2297189496        1.5552651779
 H         -6.2828224904        1.9856808593        1.4668135171
 H         -5.5885348504        0.7737738903        2.5446931883
 C         -5.7519666998        0.1453153387        0.5070905087
 H         -5.9626070497        0.5828880579       -0.4649292017
 H         -6.6554251698       -0.3939430312        0.8070105889
 C         -4.6434569096       -0.8963154912        0.3905403998
 H         -4.4371106598       -1.3119017204        1.3833056402
 H         -5.0201483593       -1.7399051418       -0.2009811596
 H         -4.6563897503        3.4154114485        0.0381077764
 H         -2.9256825104        3.2327152291        0.3420402570
 H         -4.6988408696        1.5702250373       -1.4673834722
 H         -3.1914501397        2.4021140873       -1.8239401725
 O         -1.6715650495        0.7243490579       -1.3617747908
 C         -0.6989032193       -0.2548048818       -1.2697244397
 O          0.3732476907        0.0487294879       -1.8259618197
 O         -2.6389663393       -2.7015967707        0.5504966117
 C          0.0080959409       -2.5291491010       -0.3869288578
 C          0.9158797805       -2.0951392099        0.7380149721
 C          0.6582724803       -2.5267567589        2.0359414424
 C          1.4353232300       -2.0887169480        3.0923148422
 C          2.4745157298       -1.2016436079        2.8769762218
 C          2.7356977101       -0.7591378089        1.5838488815
 C          1.9665560704       -1.2140568199        0.5218700717
 H          2.1783980606       -0.8532458207       -0.4709333286
 N          3.7771076600        0.1458689411        1.3497735810
 S          3.8625702701        1.1299130100        0.0123682203
 O          4.1786619305        0.3539632791       -1.1606015791
 O          4.8573501098        2.1182090205        0.3832724297
 C          2.3005584400        1.9707519896       -0.1857531808
 C          1.4222041497        2.1198147803        0.8670576389
 C          0.2594497296        2.8479161699        0.6692165780
 C          0.0034821898        3.4241815289       -0.5638383525
 C          0.8976199401        3.2688483982       -1.6098346222
 C          2.0550909202        2.5337950386       -1.4208426013
 H          2.7663843204        2.3697918281       -2.2144589510
 H          0.6910389103        3.7051798674       -2.5740962526
 H         -0.9013352502        3.9919221686       -0.7162769232
 H         -0.4448595406        2.9560937104        1.4796455978
 H          1.6299164296        1.6615923111        1.8208548793
 H          4.2004509897        0.5604861818        2.1658165008
 H          3.0792214696       -0.8505725872        3.6990439416
 H          1.2266071998       -2.4342419772        4.0933829325
 H         -0.1705033596       -3.1980142890        2.2088144227
 H         -0.5636057791       -3.4014598708       -0.0420227872
 C          0.7594975912       -2.9154618119       -1.6423629273
 C          1.4682950915       -4.2352702118       -1.6816583561
 C          0.2297945516       -4.0247410326       -2.4987772065
 H          0.3254202519       -3.9376607735       -3.5707236366
 H         -0.6799272683       -4.5126158925       -2.1799213664
 H          2.4187720716       -4.2928037120       -2.1897845758
 H          1.3973557214       -4.8666195711       -0.8086509356
 H          1.2247755912       -2.0807033522       -2.1502977778
