  62
        -98.94624845
 C         -1.5349877693       -1.4574352510       -0.1081582504
 C         -1.5204723095       -0.1056855013        0.3143063806
 C         -2.8206470395        0.4458961981        0.7161465214
 C         -3.9147469394       -0.3365248421        0.6983665810
 C         -5.3037145794        0.0771954473        1.1039265517
 C         -6.0916584498        0.7938228480       -0.0013788476
 C         -5.6323445702        2.2196137383       -0.3096037266
 H         -6.4024489304        2.6751179886       -0.9354729660
 H         -5.5856598201        2.7929217576        0.6167264839
 C         -4.2857428604        2.3062025992       -1.0416075268
 H         -4.0429584502        1.3316829696       -1.4714914876
 H         -4.3686728807        3.0104584598       -1.8725649062
 C         -3.1174243302        2.7667750087       -0.1696766167
 H         -3.2847388704        3.7975411284        0.1504506141
 H         -2.2086972504        2.7402075994       -0.7755831070
 C         -2.8789946598        1.9002002678        1.0733218325
 H         -1.9110348097        2.1713522577        1.5017068825
 H         -3.6566936896        2.0812349570        1.8148202729
 H         -6.0442838199        0.1908939287       -0.9112323981
 H         -7.1362038497        0.8320847475        0.3166885127
 H         -5.8368758291       -0.8389435531        1.3672169711
 H         -5.2524229893        0.7146645766        1.9871488622
 O         -3.8772488892       -1.6428812518        0.3190861900
 C         -2.6954845492       -2.2289082212       -0.1090537908
 O         -2.8061915790       -3.4256883210       -0.4465406417
 H          2.3250019704       -1.0836433396       -0.7743285211
 C          2.0551781107       -1.3796405805        0.2244435987
 C          0.8142648509       -1.9361068410        0.4869772886
 C          0.5280876513       -2.3447896220        1.7875971684
 C          1.4517672315       -2.1755838827        2.7999788783
 C          2.6753295913       -1.5816208822        2.5420010984
 C          2.9756981209       -1.1840492211        1.2453686087
 N          4.2094870207       -0.5916684306        0.9484025889
 S          4.3643571002        0.5085005804       -0.2965575003
 O          4.3842045300       -0.1799461686       -1.5638298409
 O          5.5712352801        1.2389508804        0.0325292800
 C          2.9632962200        1.6085286600       -0.2146587191
 C          2.6838187301        2.2409982390        0.9791687015
 C          1.6205372700        3.1256475388        1.0342588224
 C          0.8612715397        3.3657726395       -0.0991245772
 C          1.1563466795        2.7250798405       -1.2906111078
 C          2.2164740197        1.8366326408       -1.3511025688
 H          2.4748262496        1.3105983116       -2.2571888892
 H          0.5582300693        2.9059677111       -2.1702994075
 H          0.0288959495        4.0505164193       -0.0515878965
 H          1.3813343201        3.6199249980        1.9624073329
 H          3.2931555604        2.0383540485        1.8452879111
 H          4.7793373009       -0.3520564811        1.7455093789
 H          3.3911444815       -1.4310910327        3.3355153284
 H          1.2139201418       -2.4956020235        3.8034095181
 H         -0.4366834085       -2.7889473324        1.9938042182
 C         -0.2423108693       -2.1002398303       -0.5775157313
 H         -0.4529731691       -3.1722328403       -0.7020719321
 C          0.1618894502       -1.5179881292       -1.9160402209
 C          1.0167033502       -2.3087330583       -2.8587381217
 C         -0.4306960999       -2.0780931783       -3.1722644412
 H         -0.6847613503       -1.3979496578       -3.9714469806
 H         -1.1154214097       -2.9077611786       -3.0711562417
 H          1.3167548205       -3.2987160985       -2.5495546726
 H          1.7646643599       -1.7887740177       -3.4389692615
 H          0.3121530200       -0.4447834992       -1.8702544501
 O         -0.4823438997        0.6004400689        0.3577807609
