  62
        -98.94186355
 C          1.1700358411        1.4868281723        0.5279022917
 C          2.1271676825        1.1821703452       -0.4658121342
 C          3.1824658055        0.2163145025       -0.0983987650
 C          3.1674038289       -0.3249364610        1.1337448482
 C          4.1004030764       -1.3584522462        1.7055776285
 C          3.7868905628       -2.7750522357        1.1959198843
 C          3.4854736210       -2.8712026258       -0.2977226629
 H          3.1653534690       -3.8963326229       -0.5046152134
 H          2.6361677557       -2.2256184564       -0.5332148222
 C          4.6567756764       -2.5501279459       -1.2235632034
 H          5.4692642485       -3.2529191655       -1.0243942048
 H          4.3143177605       -2.7195103935       -2.2476906053
 C          5.2154426970       -1.1286551490       -1.1364275187
 H          5.8800883747       -0.9889405578       -1.9941567106
 H          5.8281943742       -1.0051010557       -0.2475828123
 C          4.1676456348       -0.0227793383       -1.2168423977
 H          3.5611557362       -0.1707441268       -2.1178495523
 H          4.6829091927        0.9336755801       -1.3689508912
 H          2.9041466280       -3.1381342881        1.7286360765
 H          4.6260623753       -3.4272372586        1.4446426143
 H          5.1311923660       -1.0880075459        1.4968123745
 H          3.9635058825       -1.3420827881        2.7891990505
 O          2.2119413101       -0.0138515120        2.0555744340
 C          1.1866897629        0.8668124371        1.7753667309
 O          0.3626358574        1.0164044051        2.7024245934
 O          2.1049550155        1.6835951434       -1.6212064958
 C          0.0230601613        2.4294737397        0.2187009273
 C         -0.8435192857        1.8630862510       -0.8822757879
 C         -1.5052702582        2.6537035842       -1.8140824292
 C         -2.3109708884        2.0709913182       -2.7772742862
 C         -2.4919099809        0.7001726467       -2.8232519177
 C         -1.8362717379       -0.0986957280       -1.8934705336
 C         -1.0223010608        0.4885759445       -0.9391299311
 H         -0.4976173219       -0.1452928974       -0.2418858266
 N         -1.9767978624       -1.4940415343       -1.8995279899
 S         -1.9625393542       -2.3461066694       -0.4614017971
 O         -0.6319140505       -2.3912968528        0.0902825326
 O         -2.5455814330       -3.6254496759       -0.8068552018
 C         -3.0790771676       -1.4521833776        0.6048352435
 C         -2.6083881682       -0.6746280326        1.6424616215
 C         -3.5171179034        0.0433192599        2.4053846199
 C         -4.8715392960       -0.0283313736        2.1223194326
 C         -5.3304518789       -0.8222112185        1.0814766273
 C         -4.4278253128       -1.5377407815        0.3134210100
 H         -4.7444845510       -2.1757293504       -0.4956298520
 H         -6.3851067165       -0.8824412358        0.8666853971
 H         -5.5718378491        0.5347332311        2.7188209070
 H         -3.1483224166        0.6563484527        3.2125273341
 H         -1.5507566477       -0.6282158153        1.8514249218
 H         -2.6580691735       -1.8565033263       -2.5495917673
 H         -3.1223038272        0.2504184104       -3.5746448477
 H         -2.8122132183        2.6954176737       -3.5010320852
 H         -1.3837339158        3.7243065966       -1.7904456517
 H         -0.5889906230        2.4693335378        1.1331050925
 C          0.5382644890        3.8220954703       -0.0827983127
 C         -0.2629996274        5.0280469874        0.3034205108
 C          0.9871856547        4.6871739337        1.0554180418
 H          1.8607288186        5.3068209671        0.9194395349
 H          0.8919877760        4.2813040767        2.0524263750
 H         -0.2463852961        5.8881570984       -0.3489246243
 H         -1.2084913831        4.8649413679        0.7983125796
 H          1.1165801060        3.8601245029       -0.9984430343
