  62
        -98.94761777
 C          0.8014717565        1.1686950584        0.5962457592
 C          1.2541391161        0.7474588554       -0.6773337941
 C          2.1818753932       -0.3902453287       -0.6753779348
 C          2.5062786491       -0.9870584641        0.4853979842
 C          3.4791060617       -2.1222741780        0.6537850766
 C          4.9432123671       -1.6677810559        0.7407595618
 C          5.5596203136       -1.2093192711       -0.5817332427
 H          6.6375208387       -1.1363603701       -0.4235419881
 H          5.3935286188       -1.9723002858       -1.3427339107
 C          5.0446399360        0.1451713966       -1.0883191042
 H          4.5635448152        0.6829971276       -0.2679425958
 H          5.8894855415        0.7548363952       -1.4170371396
 C          4.0678618121        0.0564203895       -2.2612407287
 H          4.5778286770       -0.3623836880       -3.1315587138
 H          3.7468550451        1.0699267450       -2.5145441589
 C          2.8127852664       -0.7802887326       -1.9776361205
 H          2.0851416567       -0.5850336826       -2.7687447003
 H          3.0590470090       -1.8411769070       -1.9797163198
 H          5.0186404945       -0.8640436148        1.4768752352
 H          5.5259214086       -2.5136323128        1.1129037807
 H          3.2192897275       -2.6241650153        1.5874548666
 H          3.3713645558       -2.8281644694       -0.1686172123
 O          1.9699779706       -0.6116898953        1.6780454817
 C          1.1293138326        0.4859199609        1.7661769012
 O          0.7423604088        0.7462584923        2.9250220308
 H         -1.6081659497        0.2575957848        0.4696345754
 C         -1.9824087947        1.0657187630       -0.1422095790
 C         -1.3016560878        2.2763004838       -0.1503637600
 C         -1.8007322986        3.3149608283       -0.9258077387
 C         -2.9455780577        3.1337100616       -1.6821028739
 C         -3.6175889865        1.9258887880       -1.6746453001
 C         -3.1289502995        0.8813490031       -0.8966810308
 N         -3.7646903954       -0.3653619338       -0.8957832579
 S         -3.6055508850       -1.4404042542        0.3633010112
 O         -4.6361504079       -2.4271547195        0.1154923073
 O         -3.6655726245       -0.7845697441        1.6492649857
 C         -2.0179544475       -2.2052255560        0.1171248312
 C         -1.2324217890       -2.4919634969        1.2153555447
 C         -0.0358040099       -3.1640267365        1.0273463918
 C          0.3536449331       -3.5317041698       -0.2507020850
 C         -0.4384418012       -3.2227857764       -1.3452417406
 C         -1.6399209847       -2.5582272056       -1.1627260048
 H         -2.2838368481       -2.3088828840       -1.9895388220
 H         -0.1257053467       -3.5019405139       -2.3383827455
 H          1.2784726959       -4.0673056450       -0.3919075880
 H          0.5843589048       -3.3931211241        1.8792520251
 H         -1.5642169334       -2.1756807838        2.1925110446
 H         -4.6550714965       -0.4162778581       -1.3662408519
 H         -4.5086162192        1.7853243796       -2.2669906841
 H         -3.3213631067        3.9465030902       -2.2849576893
 H         -1.2921902170        4.2648541492       -0.9425463165
 C         -0.0709365463        2.4043054525        0.7128185140
 H         -0.3988935049        2.4505187805        1.7625503409
 C          0.7538513142        3.6383530792        0.4038891688
 C          0.4540542836        4.9422221430        1.0783689417
 C          1.6807053877        4.1682371748        1.4548386514
 H          2.6452694215        4.5465266245        1.1508999319
 H          1.6928923459        3.6557108732        2.4062247757
 H          0.5799185814        5.8557887017        0.5169587364
 H         -0.3645129367        4.9648425223        1.7820244199
 H          1.0992894991        3.6589971875       -0.6236278066
 O          0.9173009245        1.3010406016       -1.7553553558
