  62
        -98.94356883
 C         -1.4379847116       -1.3546395392        0.6192995122
 C         -2.4225356999       -1.2125039959       -0.3884457074
 C         -3.4169330088       -0.1499351512       -0.1646022344
 C         -3.3101506065        0.6466622151        0.9137160914
 C         -4.2565662711        1.7622934609        1.2531755312
 C         -3.8183653793        3.1026594772        0.6467150790
 C         -3.4218361218        3.0123583800       -0.8261841821
 H         -3.1231012704        4.0127386361       -1.1468989517
 H         -2.5479079954        2.3646591498       -0.9216361418
 C         -4.5337507133        2.4903650595       -1.7463907560
 H         -4.5777118461        3.1203139727       -2.6373783775
 H         -5.4992122788        2.5717365823       -1.2453875145
 C         -4.3336386423        1.0517083516       -2.2257697309
 H         -3.3321052587        0.9398419738       -2.6483881283
 H         -5.0501247358        0.8589202253       -3.0287723582
 C         -4.5341290224       -0.0369477888       -1.1640547531
 H         -5.4895549631        0.1160258400       -0.6575961011
 H         -4.5709717088       -1.0000820218       -1.6813199721
 H         -4.6359820407        3.8166396213        0.7617423462
 H         -2.9652252808        3.4799481060        1.2150468483
 H         -5.2498465071        1.5010387532        0.8920534916
 H         -4.2924356917        1.8595933605        2.3396818066
 O         -2.3003606934        0.5345208953        1.8143565544
 C         -1.3531551911       -0.4666249166        1.6963222868
 O         -0.4971589743       -0.4715532824        2.6031268658
 O         -2.5008465658       -1.9317676448       -1.4180919336
 C         -0.3820573579       -2.4506658920        0.5976539867
 C          0.7660806981       -2.0195848595       -0.2810590402
 C          0.6734168494       -2.0155476121       -1.6685333587
 C          1.7310825796       -1.5674502754       -2.4396393098
 C          2.8965548979       -1.1111041960       -1.8477751102
 C          2.9921779244       -1.1013213815       -0.4635144506
 C          1.9339115502       -1.5570863374        0.3092389569
 H          2.0052062656       -1.5282481853        1.3885735543
 N          4.1625477561       -0.5906301885        0.1459399628
 S          4.3882614682        1.0549894840       -0.0939407561
 O          4.8016850974        1.2764276870       -1.4556615688
 O          5.3137545873        1.4785509525        0.9317225272
 C          2.7712363530        1.7534360348        0.1823110940
 C          2.3565456798        1.9525894816        1.4838530071
 C          1.0664774084        2.3986305600        1.7162339554
 C          0.2158248505        2.6248848484        0.6460954250
 C          0.6451977587        2.4172012476       -0.6550224393
 C          1.9358155759        1.9744427104       -0.8934721186
 H          2.3076755606        1.8004211495       -1.8898764691
 H         -0.0229930907        2.5929883031       -1.4833803723
 H         -0.7924299552        2.9595651692        0.8308800099
 H          0.7204130767        2.5484761137        2.7261332744
 H          3.0477173764        1.7655790082        2.2903353368
 H          4.1993746370       -0.7825972733        1.1379532648
 H          3.7231519788       -0.7416657083       -2.4329773478
 H          1.6464603395       -1.5695456599       -3.5157972932
 H         -0.2440062257       -2.3396636333       -2.1343897305
 H         -0.0041665260       -2.5143696048        1.6270435742
 C         -0.9273778134       -3.8094857645        0.2084204151
 C         -0.1295782525       -5.0305439373        0.5500948985
 C         -1.4054605679       -4.7396048891        1.2805899849
 H         -2.2687712260       -5.3561064204        1.0799574249
 H         -1.3411853710       -4.4010785379        2.3047690363
 H         -0.1140172484       -5.8489453600       -0.1530300691
 H          0.8010809392       -4.8889106694        1.0790614879
 H         -1.4745311985       -3.8102747101       -0.7240112278
