  62
        -98.94133994
 C         -0.0334856996       -1.9065344134       -0.2912869733
 C          0.9615196991       -1.2634331492       -1.0586588889
 C          2.2265136342       -0.9453013589       -0.3706660033
 C          2.3639211470       -1.2737807344        0.9265682952
 C          3.5334789303       -1.0239717009        1.8461053621
 C          4.9394000679       -1.2758210582        1.2793043230
 C          5.7382890634        0.0057710705        1.0337022848
 H          5.5384639285        0.6998391391        1.8529906587
 H          6.8030761174       -0.2359232987        1.0634334749
 C          5.4592723453        0.7030871465       -0.2964954329
 H          5.9795252025        1.6635529367       -0.2810167681
 H          5.8864690254        0.1135745337       -1.1104412094
 C          3.9810784052        0.9509718851       -0.6031853824
 H          3.4570083303        1.2761187664        0.2964485777
 H          3.9214549924        1.7733546272       -1.3193921909
 C          3.2710212281       -0.2667556338       -1.2154673288
 H          4.0098235107       -1.0099192590       -1.5279510878
 H          2.7389099203        0.0300605078       -2.1245363111
 H          5.4856513045       -1.8760954127        2.0087829706
 H          4.8709615998       -1.8636375466        0.3654908714
 H          3.4563570826        0.0014115126        2.2188868406
 H          3.3583330947       -1.6753223557        2.7058083274
 O          1.3752569042       -1.8964883466        1.6285675818
 C          0.1525817734       -2.2010590982        1.0585479082
 O         -0.6590186897       -2.7389369276        1.8365207479
 O          0.7988961129       -0.9526361912       -2.2704590564
 C         -1.3872598084       -2.1904761922       -0.9188782773
 C         -2.4358367371       -1.4187104978       -0.1556695066
 C         -3.6187371487       -1.9694476991        0.3170946500
 C         -4.4878946787       -1.2042213259        1.0765655061
 C         -4.1900366711        0.1080752700        1.3930067136
 C         -3.0159832902        0.6742692012        0.9067248673
 C         -2.1725509066       -0.0805443366        0.1110293749
 H         -1.2623767657        0.3604233102       -0.2664433434
 N         -2.6798120781        2.0042175328        1.1933909769
 S         -1.0808691302        2.4900569285        1.2694122613
 O         -0.2069201539        1.4584188532        1.7790728791
 O         -1.1261099416        3.7165091990        2.0398937517
 C         -0.6818290744        2.8907348921       -0.4176274728
 C         -1.5176849782        3.7572039521       -1.0948879287
 C         -1.2181560008        4.0863857334       -2.4065250390
 C         -0.0936974728        3.5480718680       -3.0147094862
 C          0.7377700667        2.6848647715       -2.3190093381
 C          0.4435281809        2.3521984864       -1.0064291179
 H          1.0573978422        1.6704626449       -0.4382173552
 H          1.6060793196        2.2558381398       -2.7925431318
 H          0.1372344463        3.8004801939       -4.0376352912
 H         -1.8620461026        4.7573058388       -2.9519810226
 H         -2.3796777258        4.1547319880       -0.5858778850
 H         -3.2553649747        2.4566342550        1.8879087056
 H         -4.8524176039        0.6901834084        2.0153606854
 H         -5.4010047119       -1.6447434398        1.4474844016
 H         -3.8524991816       -3.0006590736        0.1094042383
 H         -1.3297506783       -1.7883845233       -1.9411595833
 C         -1.6538537783       -3.6783613538       -0.9895356172
 C         -2.5569970596       -4.2331445012       -2.0494498381
 C         -1.0788732787       -4.4649150933       -2.1279760537
 H         -0.6984016211       -5.4555048476       -1.9289930196
 H         -0.5123769289       -3.9205326233       -2.8691919485
 H         -3.1925778525       -5.0690442770       -1.7990984472
 H         -2.9974997216       -3.5353642723       -2.7451740517
 H         -1.6605150004       -4.1453627403       -0.0109403272
