  62
        -98.94105037
 C         -1.6427623201       -1.5898416993       -0.2493249106
 C         -2.6511178299       -0.8792977494        0.4417937297
 C         -3.0646287499        0.3955553108       -0.1534524098
 C         -2.5096336300        0.8018151212       -1.3095415597
 C         -2.8286082201        2.0701457714       -2.0532623693
 C         -2.3669998899        3.3656619112       -1.3560952189
 C         -3.4556438998        4.0497474909       -0.5194846985
 H         -3.3706445797        5.1303842310       -0.6512256782
 H         -4.4321882798        3.7608916911       -0.9111867085
 C         -3.4105671396        3.7799298704        0.9877546114
 H         -4.3649065695        4.0967667403        1.4151018016
 H         -2.6258177495        4.3947304402        1.4354104215
 C         -3.1372552296        2.3331551803        1.3991751209
 H         -2.0787691097        2.1065070903        1.2389577507
 H         -3.3132830695        2.2442739199        2.4740515909
 C         -3.9756644498        1.2765632506        0.6503609906
 H         -4.4921620697        0.6335394104        1.3661669205
 H         -4.7190007798        1.7535050308        0.0135606909
 H         -2.0534475999        4.0579714814       -2.1394528087
 H         -1.4881989798        3.1484507509       -0.7466212390
 H         -2.3214632302        1.9831750717       -3.0161207493
 H         -3.9039591401        2.1155605716       -2.2390648191
 O         -1.5765801302        0.0671434713       -1.9678453901
 C         -1.0563587702       -1.0892652089       -1.4117989305
 O         -0.1043718803       -1.5798232387       -2.0496565208
 H         -0.2943987198       -0.6940191000        1.7783534695
 C          0.5719616501       -1.2562351400        1.4517950692
 C          0.3897023600       -2.4494656197        0.7615794788
 C          1.5150401199       -3.1582076797        0.3645106685
 C          2.7835405400       -2.6567865498        0.6084509085
 C          2.9549894501       -1.4290990100        1.2226543989
 C          1.8341362902       -0.7296532801        1.6490576493
 N          1.9948753903        0.5873639197        2.1780247097
 S          1.6657392403        1.7187207101        0.9627378801
 O          1.8616666304        3.0177920999        1.5718917305
 O          0.3609511602        1.5097173304        0.3717525302
 C          2.9599313601        1.3765573905       -0.2030005402
 C          2.7238566499        0.5078655908       -1.2498670104
 C          3.7694405798        0.2021913110       -2.1077604007
 C          5.0206601399        0.7633641609       -1.9039464306
 C          5.2393072301        1.6349451205       -0.8471104203
 C          4.2007863402        1.9431348903        0.0160852799
 H          4.3187139903        2.6133655700        0.8515902601
 H          6.2135881401        2.0695661204       -0.6918215603
 H          5.8297426998        0.5181434811       -2.5737643408
 H          3.5940835497       -0.4791729287       -2.9247801509
 H          1.7412866699        0.0797005609       -1.3819311705
 H          1.3679397804        0.7732419695        2.9507424798
 H          3.9344539702       -1.0040326001        1.3693717489
 H          3.6482001999       -3.2148942598        0.2845371282
 H          1.3979886898       -4.0923997795       -0.1599126418
 C         -1.0287130501       -2.8196363895        0.4028796889
 H         -1.6005535200       -2.9810936298        1.3282685889
 C         -1.1453230902       -4.0452676992       -0.4740981915
 C         -1.1183303003       -5.4116507194        0.1418225980
 C         -2.3978125803       -4.8654570592       -0.4144605617
 H         -2.7834683404       -5.2827663788       -1.3322929018
 H         -3.1655541102       -4.5500603493        0.2770200485
 H         -1.0190427901       -5.4738360998        1.2149279880
 H         -0.6274947604       -6.2093985093       -0.3944197023
 H         -0.6825966303       -3.9087813289       -1.4445063215
 O         -3.1658133298       -1.2841048998        1.5217398096
