  62
        -98.93907660
 C          2.4212526279        1.2133128001       -0.0328555648
 C          3.0798381745        0.3534629904        0.8749482981
 C          3.6678385205       -0.8771485620        0.3162212908
 C          3.5302630471       -1.1172042369       -1.0011534348
 C          3.9821488061       -2.3449318697       -1.7410187602
 C          3.0088529573       -3.5274177625       -1.5490676374
 C          2.3420656585       -3.6084206559       -0.1752064714
 H          1.5302722592       -4.3387413361       -0.2390510169
 H          1.8766973839       -2.6463240592        0.0530961425
 C          3.2576326076       -4.0274159102        0.9750645246
 H          3.5213203793       -5.0800062775        0.8452425491
 H          2.6859979332       -3.9406298544        1.9027772330
 C          4.5565656339       -3.2370281283        1.1205024640
 H          5.2097599280       -3.4432159272        0.2768487551
 H          5.0680025802       -3.6124202492        2.0119411645
 C          4.3959535998       -1.7308942936        1.3250218592
 H          5.3953675401       -1.2947930008        1.4456149127
 H          3.8779303815       -1.5554122916        2.2742640256
 H          3.5399005924       -4.4581424985       -1.7528190717
 H          2.2098033302       -3.4246236939       -2.2869213586
 H          4.9901616708       -2.6046519247       -1.4295942949
 H          4.0135895362       -2.0887886269       -2.8017043182
 O          2.8720942359       -0.2707237596       -1.8390826657
 C          2.2902961603        0.9004245489       -1.3859531434
 O          1.7075354691        1.5598887880       -2.2664758949
 O          3.1568070230        0.5928693272        2.1122565060
 C          1.7522718568        2.4694340186        0.5002275943
 C          0.2592688637        2.3091743228        0.3488754964
 C         -0.5515817354        3.1865273127       -0.3569391131
 C         -1.9047317686        2.9273094736       -0.4988592316
 C         -2.4763017760        1.7985525951        0.0588537047
 C         -1.6749132664        0.9195726366        0.7763991314
 C         -0.3240856863        1.1842466840        0.9213115477
 H          0.3009956199        0.4934856535        1.4750890138
 N         -2.2491262078       -0.2403666397        1.3428389347
 S         -2.8415010142       -1.3596744347        0.2304308566
 O         -2.8206684551       -2.6313340739        0.9211197150
 O         -2.1183117622       -1.2952353653       -1.0196509855
 C         -4.5310864394       -0.8536710195       -0.0075466551
 C         -5.3758811615       -0.8714227030        1.0852782961
 C         -6.6937123082       -0.4773486447        0.9177549969
 C         -7.1418827408       -0.0770036456       -0.3324793770
 C         -6.2816664055       -0.0678207823       -1.4199193209
 C         -4.9614549071       -0.4594187812       -1.2590079662
 H         -4.2535065218       -0.4628105767       -2.0725804438
 H         -6.6315304082        0.2435131322       -2.3910775471
 H         -8.1679856484        0.2294993987       -0.4606246730
 H         -7.3658343341       -0.4831567553        1.7606019801
 H         -4.9871586061       -1.1949413839        2.0363050851
 H         -1.6216095238       -0.7130349036        1.9794374853
 H         -3.5277386311        1.5911773087       -0.0565434012
 H         -2.5220550034        3.6135510088       -1.0581154255
 H         -0.1222130118        4.0646250687       -0.8100899611
 H          1.9869359340        2.4913057763        1.5746073845
 C          2.3120465600        3.7153017570       -0.1489419977
 C          2.2166048102        5.0327193956        0.5592331895
 C          3.5416398057        4.3451322751        0.4311907403
 H          4.2760441970        4.7572551658       -0.2442864975
 H          3.9682082415        3.8850356843        1.3106403286
 H          2.0428747560        5.9219333353       -0.0272838022
 H          1.7435987758        5.0440545874        1.5294131825
 H          2.2194037889        3.7032473788       -1.2285707749
