  62
        -98.94009286
 C          2.5302885696        0.0316298892       -0.4809521506
 C          2.2421840301        0.7198806193        0.7204189494
 C          1.8284155905        2.1278587994        0.5866599195
 C          1.6972085004        2.6619267295       -0.6394923205
 C          1.3301696708        4.0728394796       -1.0320254904
 C          0.2542577712        4.7944057599       -0.2140295002
 C         -0.9025676490        3.9053560203        0.2649417701
 H         -0.8580744594        2.9258483603       -0.2169181900
 H         -1.8490825789        4.3666975506       -0.0240659498
 C         -0.9126104287        3.7080526403        1.7819805401
 H         -1.9159418788        3.4029463207        2.0873819703
 H         -0.6923952883        4.6613401803        2.2685736800
 C          0.0561522510        2.6421895500        2.2887222899
 H         -0.2658551494        1.6627429301        1.9250332999
 H          0.0003978513        2.6206049700        3.3800983699
 C          1.5237633510        2.8401368095        1.8735789496
 H          2.1548941410        2.3672067793        2.6311084094
 H          1.7801717313        3.8959018594        1.8193006595
 H         -0.1373487887        5.5912694801       -0.8491021401
 H          0.7138723816        5.2766172598        0.6475473597
 H          2.2464704910        4.6717156193       -1.0234012806
 H          1.0067019306        3.9988615397       -2.0736696403
 O          1.9505324200        1.9468733194       -1.7754393405
 C          2.3601517095        0.6272739592       -1.7276227206
 O          2.5466920491        0.1035417292       -2.8472184506
 H          0.3511157891       -1.2597828801       -1.0048754902
 C          0.5241694590       -1.9714221002       -0.2089592702
 C          1.8228646190       -2.2191663006        0.2172828095
 C          2.0237520189       -3.1542384006        1.2236130995
 C          0.9427585488       -3.7919791103        1.8087492997
 C         -0.3513119012       -3.5022663799        1.4179930700
 C         -0.5603126511       -2.5828599898        0.3954824500
 N         -1.8563107611       -2.2649976194       -0.0486739597
 S         -2.1284585406       -0.6671748393       -0.5340384097
 O         -1.7870094209       -0.5447099694       -1.9307251497
 O         -1.4797246302        0.2493215505        0.3728395602
 C         -3.8998423006       -0.5731142787       -0.3483117893
 C         -4.4356982701        0.0520784415        0.7612796008
 C         -5.8135655801        0.0894358319        0.9094737011
 C         -6.6267753705       -0.4984627278       -0.0475447987
 C         -6.0740880909       -1.1218068680       -1.1567856988
 C         -4.6976146010       -1.1612819385       -1.3117949691
 H         -4.2219607313       -1.6243308586       -2.1606226092
 H         -6.7093929112       -1.5754396478       -1.9001577087
 H         -7.6984007205       -0.4682665275        0.0701357815
 H         -6.2456844498        0.5762832321        1.7687480712
 H         -3.7624768398        0.4997437713        1.4748449807
 H         -2.5769893610       -2.5908629191        0.5814067304
 H         -1.1928396912       -3.9799395696        1.8963255502
 H          1.1109141687       -4.5106939003        2.5964774597
 H          3.0238110489       -3.3718841610        1.5610037293
 C          2.9314406991       -1.4328412110       -0.4404221807
 H          3.0057597588       -1.7560274110       -1.4897918207
 C          4.2808194092       -1.6046207114        0.2237368490
 C          5.1613672188       -2.7585592517       -0.1482783112
 C          5.5190237091       -1.3711103618       -0.5867019113
 H          6.3573553694       -0.8791370821       -0.1170891214
 H          5.3864322890       -1.1099919418       -1.6269008412
 H          4.7943761384       -3.4457859916       -0.8956004611
 H          5.7600684988       -3.2202127819        0.6222045087
 H          4.2835139795       -1.2639612114        1.2525425090
 O          2.3494090701        0.1933787793        1.8590603094
