  62
        -98.94108546
 C         -1.6867258750        0.3240892553       -0.9506208951
 C         -2.9088843826        0.9747532816       -0.6526982296
 C         -4.0765132353        0.0972725994       -0.4712344011
 C         -3.9339986717       -1.2348851897       -0.5846838866
 C         -5.0257055774       -2.2398654917       -0.3608121703
 C         -5.0619890270       -2.7045160882        1.1019159450
 C         -5.0425620550       -1.5597220798        2.1149232998
 H         -5.1022411545       -2.0053306945        3.1103015116
 H         -4.0818090907       -1.0434220992        2.0516496794
 C         -6.1771730665       -0.5401886294        1.9428488054
 H         -6.9756182484       -0.9725119034        1.3386682446
 H         -6.5990386984       -0.3166309852        2.9250564731
 C         -5.7440100162        0.7930388066        1.3303985601
 H         -4.8829570926        1.1848803558        1.8777129045
 H         -6.5630558683        1.5064943365        1.4550173875
 C         -5.3907726342        0.7579009484       -0.1618414649
 H         -5.2948120412        1.7924257612       -0.5040773433
 H         -6.2006433557        0.2852270880       -0.7210585482
 H         -4.1911918308       -3.3380228473        1.2854992990
 H         -5.9591252024       -3.3084182425        1.2499007809
 H         -5.9813622680       -1.7982785935       -0.6364728523
 H         -4.8358363274       -3.1021937322       -1.0020624389
 O         -2.7467528459       -1.8256455034       -0.8726619507
 C         -1.6033941257       -1.0689169039       -1.0545913629
 O         -0.5839133892       -1.7408410890       -1.3090173400
 O         -3.0478128994        2.2216471974       -0.5374058536
 C         -0.3749995423        1.0605151342       -1.1700658791
 C          0.2890362880        1.4128165593        0.1397324049
 C         -0.3074084844        2.2780347249        1.0508871809
 C          0.3367319928        2.5986586883        2.2315055223
 C          1.5901493064        2.0847605199        2.5149809097
 C          2.1939927399        1.2186572732        1.6112872160
 C          1.5335010013        0.8783602925        0.4391792455
 H          1.9987168757        0.1916563438       -0.2514613208
 N          3.4566555782        0.6712185460        1.8741710888
 S          4.5508374252        0.4218310713        0.6337467436
 O          5.8388420018        0.3901609392        1.2933828949
 O          4.3987920288        1.4013754133       -0.4162299326
 C          4.1753601314       -1.2082289736        0.0274424647
 C          3.9731696350       -1.4085105918       -1.3231313202
 C          3.7033152244       -2.6890439451       -1.7787250552
 C          3.6424797807       -3.7417434431       -0.8794055964
 C          3.8519781458       -3.5249108178        0.4741133814
 C          4.1226739670       -2.2470894177        0.9352725330
 H          4.2939629706       -2.0401317798        1.9785207734
 H          3.8022061224       -4.3473906091        1.1694894119
 H          3.4278188767       -4.7364489018       -1.2369407452
 H          3.5358685190       -2.8588892561       -2.8302485148
 H          4.0239183510       -0.5608137679       -1.9888298789
 H          3.9037360172        1.0078330965        2.7141877169
 H          2.0980743855        2.3494367649        3.4301041485
 H         -0.1362406205        3.2678043144        2.9346179277
 H         -1.2796200904        2.6888372298        0.8262799541
 H          0.2807629916        0.3464980495       -1.6868535613
 C         -0.5056058204        2.2980536861       -2.0382473337
 C          0.7382942924        2.8963129814       -2.6211202669
 C         -0.2449371537        2.1953079436       -3.5091048330
 H         -0.8464165687        2.7885217862       -4.1815627131
 H          0.0245716114        1.2263252010       -3.9039004624
 H          0.8110175558        3.9714514489       -2.6834643262
 H          1.6785044005        2.4088522372       -2.4062517539
 H         -1.2856407272        2.9735175468       -1.7138223239
