  62
        -98.94611964
 C         -1.9300866044       -1.2915202780        0.2719595615
 C         -1.7293285972        0.0960608699        0.0813162294
 C         -2.8914422170        0.9499008052        0.3569126354
 C         -4.0442657673        0.3968239750        0.7759156979
 C         -5.3097189290        1.1371312109        1.1144599133
 C         -6.1881120934        1.4591158289       -0.1023441942
 C         -5.6561363857        2.5650042441       -1.0148399045
 H         -6.4666912833        2.8367813457       -1.6939827924
 H         -5.4230030885        3.4468896227       -0.4173842520
 C         -4.4296194042        2.1650164664       -1.8469740644
 H         -4.5694889424        2.4894295883       -2.8807194299
 H         -4.3398189302        1.0762717142       -1.8640000111
 C         -3.1096868326        2.7626674981       -1.3595770022
 H         -2.3067917463        2.3849999445       -1.9980455785
 H         -3.1395079967        3.8495730442       -1.4638621401
 C         -2.7608141045        2.4198497609        0.0945611524
 H         -1.7182276425        2.6951562192        0.2703856490
 H         -3.3934739140        2.9867398349        0.7770889667
 H         -7.1659776455        1.7678025147        0.2744232505
 H         -6.3299569734        0.5444673016       -0.6827581214
 H         -5.8775248387        0.4904838567        1.7868740738
 H         -5.0657555377        2.0591903105        1.6427095694
 O         -4.1893022394       -0.9421300234        0.9650448536
 C         -3.1468705950       -1.8172717461        0.7056634091
 O         -3.4196493262       -3.0180977344        0.9073115918
 H          1.8208597092       -1.8700195320       -0.8354354957
 C          1.6749026609       -1.7334145634        0.2224365792
 C          0.4216934682       -1.8851343697        0.7934606561
 C          0.2883137951       -1.6996249093        2.1679487083
 C          1.3772170419       -1.3557793040        2.9444076807
 C          2.6230453306       -1.1809326895        2.3660509582
 C          2.7690387423       -1.3710619395        0.9982104360
 N          4.0266059887       -1.2272033888        0.3821630732
 S          4.2146406548       -0.1677577700       -0.9012945074
 O          3.3502582126       -0.5494934087       -1.9867916078
 O          5.6344891197       -0.1831520034       -1.1799679688
 C          3.7605431388        1.4280307364       -0.2451428807
 C          2.4275294601        1.7472752660       -0.0812299902
 C          2.1046654984        2.9694996600        0.4888987350
 C          3.1052222455        3.8437512855        0.8825551519
 C          4.4393208285        3.5057078541        0.7106603804
 C          4.7715534180        2.2853326889        0.1464935036
 H          5.7940691622        1.9812920318       -0.0098032672
 H          5.2178338838        4.1864542800        1.0155441492
 H          2.8432200995        4.7923644296        1.3243735420
 H          1.0640611322        3.2204771322        0.6201357459
 H          1.6538374148        1.0615825486       -0.3886842463
 H          4.7849780473       -1.0903754646        1.0360463247
 H          3.4744320970       -0.9044945157        2.9695012216
 H          1.2557655140       -1.2146953764        4.0078208729
 H         -0.6875630884       -1.8271865107        2.6174066646
 C         -0.7979263703       -2.2619440974       -0.0114055344
 H         -1.1455401441       -3.2468361720        0.3338474479
 C         -0.5391433255       -2.3348804308       -1.5020671717
 C          0.0164180398       -3.5859805040       -2.1106441997
 C         -1.4133562415       -3.2063232917       -2.3504444143
 H         -1.6976267398       -2.8542386338       -3.3308792985
 H         -2.1852546299       -3.7716608132       -1.8481608034
 H          0.2158474171       -4.4170028177       -1.4508726590
 H          0.7187145732       -3.4922441146       -2.9255587186
 H         -0.2258003013       -1.3853427636       -1.9224592671
 O         -0.6386573981        0.5985356881       -0.2929988407
