  62
        -98.93875497
 C          1.3845842199        0.8768863796        0.3318439790
 C          2.3781426198        0.9274907891       -0.6743684112
 C          3.3032180796       -0.2214748111       -0.7381787210
 C          3.1286922595       -1.2578653008        0.0982748593
 C          3.9784135293       -2.4923512909        0.2181126495
 C          5.0417496195       -2.3124186508        1.3148351493
 C          6.3407038196       -1.6541447012        0.8511514189
 H          6.8953557193       -2.3566533415        0.2254649390
 H          6.9438849197       -1.4630512310        1.7418138987
 C          6.1722190797       -0.3418438514        0.0806927685
 H          7.1179773998        0.2010067285        0.1350857282
 H          5.4171371999        0.2774302589        0.5683755485
 C          5.8048920094       -0.5518959017       -1.3959350713
 H          5.9642990492       -1.5983740318       -1.6555278011
 H          6.4855484894        0.0286938880       -2.0220488916
 C          4.3788927494       -0.1336458216       -1.7864677912
 H          4.0635611692       -0.7129729018       -2.6603696910
 H          4.3801622296        0.9166201583       -2.0939907515
 H          5.2887965694       -3.2922647407        1.7286308695
 H          4.5961880198       -1.7215670105        2.1194844392
 H          4.4349280991       -2.7408693613       -0.7352724805
 H          3.3115808792       -3.3051745907        0.5130559499
 O          2.1315006397       -1.2873725204        1.0251746395
 C          1.2626304899       -0.2255813902        1.1819443693
 O          0.4310042900       -0.3784139398        2.1000927795
 O          2.5165756198        1.8779582488       -1.4882980915
 C          0.3651310702        1.9840701598        0.5549492788
 C         -0.7749778700        1.8424451697       -0.4253676710
 C         -0.6060244102        2.0836169893       -1.7851305411
 C         -1.6662426204        1.9261217992       -2.6583422409
 C         -2.9054144604        1.5135288296       -2.2000709905
 C         -3.0835830002        1.2663252400       -0.8442656604
 C         -2.0219982400        1.4425414401        0.0329138993
 H         -2.1766131099        1.2547833104        1.0846331894
 N         -4.3324118702        0.8561517504       -0.3492036401
 S         -4.4275978902       -0.3719879293        0.7838039503
 O         -5.8172437803       -0.7739430791        0.7525535206
 O         -3.9307677699        0.0873652510        2.0545875700
 C         -3.4116127405       -1.6791660497        0.1214464305
 C         -3.9716849208       -2.4961601098       -0.8428683692
 C         -3.1948237211       -3.4853689301       -1.4214959590
 C         -1.8707217711       -3.6354317903       -1.0358900092
 C         -1.3251396608       -2.8083790701       -0.0674384695
 C         -2.0988167305       -1.8194533898        0.5211940803
 H         -1.6849224003       -1.1742592396        1.2803402300
 H         -0.2968378007       -2.9158398402        0.2422877403
 H         -1.2614706513       -4.4022293105       -1.4880087891
 H         -3.6196073613       -4.1340382603       -2.1705244988
 H         -5.0075187709       -2.3533048197       -1.1053140291
 H         -5.0420280803        0.7419948303       -1.0587747000
 H         -3.7302840105        1.3864870995       -2.8845251704
 H         -1.5244508805        2.1185866489       -3.7109946509
 H          0.3657837298        2.3768083890       -2.1502614713
 H         -0.0431360597        1.8116450502        1.5605322089
 C          0.9640460404        3.3758837597        0.5202500283
 C          0.2123473507        4.4981499900        1.1675169581
 C          1.4744391707        3.9829266300        1.7905899581
 H          2.3609596008        4.5977854098        1.7483401577
 H          1.3937276908        3.3959515802        2.6945512882
 H          0.2300644408        5.4693889499        0.6976024178
 H         -0.7245056493        4.2596631903        1.6492507383
 H          1.5118641903        3.5916736293       -0.3868100818
