  62
        -98.93674745
 C         -2.1199074002       -1.1380648510        0.1941527096
 C         -2.0650522103       -0.1045808501       -0.7748952193
 C         -2.4762690004        1.2314442794       -0.3075772281
 C         -2.8361997005        1.4106644382        0.9746579521
 C         -3.3035506207        2.7086817175        1.5661449233
 C         -4.8282585307        2.8551008175        1.4640029133
 C         -5.3848810006        2.5632297288        0.0707042230
 H         -5.2245799504        1.5081185391       -0.1621092980
 H         -6.4641849706        2.7245673787        0.1109233230
 C         -4.7803965805        3.4242155900       -1.0470565561
 H         -5.5872379005        3.7809288305       -1.6906620158
 H         -4.2949505107        4.3013423596       -0.6179007452
 C         -3.7860695504        2.6876531809       -1.9467346368
 H         -3.5872845204        3.3143708018       -2.8202386061
 H         -4.2346274103        1.7582234313       -2.3066237277
 C         -2.4320454604        2.3512833204       -1.3088706070
 H         -1.7597059603        2.0131959413       -2.1036945572
 H         -1.9990462505        3.2482916600       -0.8603903661
 H         -5.2896347007        2.1603844268        2.1694452926
 H         -5.0974957408        3.8705044072        1.7601915943
 H         -3.0138067808        2.7277922865        2.6181459433
 H         -2.8111432107        3.5310225381        1.0504468842
 O         -2.8595223705        0.3997461973        1.8811604111
 C         -2.4940309904       -0.8836813823        1.5160457999
 O         -2.5529655804       -1.7145252933        2.4462023290
 H          0.3982669398       -0.8441212103       -0.2903939299
 C          0.6857829098       -1.7589176208        0.2051116293
 C         -0.2543706801       -2.7604378011        0.4037016182
 C          0.1410382799       -3.9313893916        1.0390492771
 C          1.4524722599       -4.0986595519        1.4485697270
 C          2.3850822398       -3.0975898917        1.2520763981
 C          1.9928512398       -1.9094445911        0.6413880292
 N          2.9070028897       -0.8537228109        0.5109273804
 S          2.5635563797        0.5329763399       -0.3714588983
 O          1.4862827995        1.2380694392        0.2764749423
 O          2.3993738198        0.2217136313       -1.7741694086
 C          4.0939009696        1.4141886598       -0.1248336973
 C          4.3014156094        2.0439426087        1.0879138233
 C          5.4982088993        2.7084773386        1.3025895141
 C          6.4632117994        2.7324511796        0.3063272842
 C          6.2401172596        2.0986378408       -0.9065571965
 C          5.0451872696        1.4311558809       -1.1268659472
 H          4.8233787198        0.9311916318       -2.0559479577
 H          6.9903477596        2.1217492916       -1.6803430064
 H          7.3935894793        3.2509830895        0.4757294148
 H          5.6734756992        3.2044515477        2.2436120346
 H          3.5185061693        2.0052012079        1.8275492032
 H          3.8718034397       -1.1422256507        0.4414180902
 H          3.4050344298       -3.2224963819        1.5805530981
 H          1.7501038999       -5.0161462224        1.9329828562
 H         -0.5890658200       -4.7054912019        1.2241773163
 C         -1.6769180001       -2.5697728207       -0.0639710917
 H         -2.3156563001       -3.2000999214        0.5773361076
 C         -1.8825845899       -3.0297166593       -1.4995844222
 C         -0.7680945298       -3.1207191483       -2.4933670222
 C         -1.3860691298       -4.3718968988       -1.9503408535
 H         -2.0167554697       -4.9589333183       -2.6006077541
 H         -0.8031724598       -4.9533367695       -1.2528843340
 H          0.2239360401       -2.8474102785       -2.1663406418
 H         -0.9788215598       -2.8254351773       -3.5097264119
 H         -2.8446445899       -2.7125359590       -1.8882772220
 O         -1.7061562901       -0.2609751989       -1.9703342295
