  62
        -98.94230066
 C         -0.8927022247       -1.3045435821       -0.0179046713
 C         -1.8819993626       -1.0226994800        0.9501109439
 C         -2.6249660367        0.2372446096        0.7809921456
 C         -2.3215531280        1.0451491479       -0.2493403355
 C         -2.9155815716        2.3872728930       -0.6008821193
 C         -4.4322051317        2.5582592467       -0.4474226576
 C         -5.2588203345        1.3048783294       -0.7696299503
 H         -6.0390972627        1.5679726417       -1.4860253470
 H         -4.6253657999        0.5498765224       -1.2380230559
 C         -5.9367003985        0.7046672623        0.4639947952
 H         -6.3568189038        1.5153453546        1.0633321158
 H         -6.7676682305        0.0747540325        0.1376513605
 C         -5.0372664608       -0.1569034167        1.3495042670
 H         -4.7923310645       -1.0892716503        0.8336271525
 H         -5.6032081772       -0.4259140248        2.2447674472
 C         -3.7136252958        0.4947859222        1.7829339083
 H         -3.8401034189        1.5572428008        1.9778661488
 H         -3.3878505096        0.0120843699        2.7089081091
 H         -4.7261629768        3.3705608155       -1.1144612489
 H         -4.6624321373        2.8866655033        0.5650581392
 H         -2.6362548518        2.5539616810       -1.6438465772
 H         -2.4075109846        3.1496865151       -0.0023043416
 O         -1.3472436454        0.7402146099       -1.1525111739
 C         -0.6040615426       -0.4249764096       -1.0599528015
 O          0.2589412170       -0.5585803151       -1.9466591349
 O         -2.1308245175       -1.7880507201        1.9221650135
 C         -0.0872911694       -2.5829183655        0.0959651307
 C          1.3916334938       -2.2928150860        0.1722620788
 C          2.3492561081       -3.1524194503       -0.3539726775
 C          3.6961583240       -2.8551766049       -0.2442899553
 C          4.1173656583       -1.6933617464        0.3759696661
 C          3.1674355366       -0.8290666818        0.9086271736
 C          1.8208470973       -1.1409868807        0.8178457383
 H          1.0976464766       -0.4648936357        1.2499030424
 N          3.5540152191        0.3616037532        1.5446187477
 S          2.6288730310        1.7393841426        1.4082798170
 O          3.5293986065        2.8049763149        1.8022047199
 O          1.4278337500        1.6256400110        2.2001956218
 C          2.2075414745        1.9588597848       -0.3115215128
 C          3.0488059143        1.5127891959       -1.3098978866
 C          2.7142356269        1.7684143009       -2.6294407086
 C          1.5620880819        2.4764667074       -2.9281607243
 C          0.7340095612        2.9287821801       -1.9144996270
 C          1.0565108415        2.6643853243       -0.5942748911
 H          0.4289522610        2.9775804205        0.2259782525
 H         -0.1664344509        3.4748424684       -2.1459640807
 H          1.3025279157        2.6697734784       -3.9570650633
 H          3.3514958914        1.4077276058       -3.4206584454
 H          3.9411936136        0.9615855156       -1.0626624621
 H          4.5410120426        0.5707473874        1.5100560678
 H          5.1674610510       -1.4554218055        0.4516014142
 H          4.4281853847       -3.5324115199       -0.6568746917
 H          2.0390559622       -4.0563621979       -0.8519605307
 H         -0.3952539341       -3.0410162942        1.0487964865
 C         -0.4462244149       -3.5267083535       -1.0357975388
 C         -0.4720708977       -5.0094879475       -0.8182754813
 C         -1.7554547169       -4.2536444637       -0.9799395132
 H         -2.3188405140       -4.3755226163       -1.8928692436
 H         -2.3701760712       -4.0951892111       -0.1056156759
 H         -0.1557500787       -5.6544880775       -1.6242732060
 H         -0.2249602514       -5.3766740439        0.1664804968
 H         -0.1214969635       -3.1543658934       -2.0010516214
