  62
        -98.94761308
 C          1.8695301380        1.2899959157       -0.1060007411
 C          2.9404838834        0.5235625465        0.4169098664
 C          3.2046128883       -0.7572962543       -0.2452914277
 C          2.4404297474       -1.1404625067       -1.2837097435
 C          2.5675131427       -2.4275164765       -2.0512941223
 C          1.8320170794       -3.5991770878       -1.3862033149
 C          2.5168362938       -4.1686114547       -0.1431134820
 H          2.0343412780       -5.1225365809        0.0794232149
 H          3.5649272324       -4.3751010834       -0.3650506655
 C          2.4158967928       -3.2693676707        1.0971148966
 H          1.6071990610       -2.5469654942        0.9567383339
 H          2.1428440564       -3.8767681351        1.9640140938
 C          3.7056920062       -2.5289986182        1.4543503066
 H          4.4732978011       -3.2517409629        1.7418067712
 H          3.5029005786       -1.8914077628        2.3189713096
 C          4.2659998936       -1.6430923228        0.3339097417
 H          5.0402013547       -1.0008878260        0.7617806403
 H          4.7133475459       -2.2603787418       -0.4449597459
 H          0.8234070263       -3.2712973030       -1.1200796491
 H          1.7434170754       -4.3971486281       -2.1274477771
 H          2.1225136100       -2.2522779063       -3.0331505264
 H          3.6198469619       -2.6804466233       -2.1840391445
 O          1.4374694903       -0.3696028723       -1.7725423627
 C          1.0871564522        0.8253437421       -1.1638628074
 O          0.0867716528        1.3698665120       -1.6702490777
 O          3.6349344321        0.8896453562        1.4041930257
 C          1.4705173259        2.5535847758        0.6380386283
 C         -0.0114897757        2.4987562702        0.9157762868
 C         -0.9062937264        3.5185882633        0.6219915121
 C         -2.2601934435        3.3547346023        0.8647512666
 C         -2.7525173069        2.1659236628        1.3707574404
 C         -1.8627040978        1.1405720242        1.6702368526
 C         -0.5057403423        1.3281837447        1.4795773591
 H          0.1718744857        0.5217909264        1.7219959467
 N         -2.2998607800       -0.1166003873        2.1425919778
 S         -2.0837101028       -1.4077462390        1.0901724138
 O         -2.5758464341       -2.5661956260        1.8056102021
 O         -0.7144336611       -1.4640608230        0.6514537916
 C         -3.1867041682       -1.0473193259       -0.2649794927
 C         -4.4374182540       -1.6360264152       -0.2666459203
 C         -5.3331995749       -1.3089763448       -1.2710260272
 C         -4.9682482090       -0.3928475393       -2.2465296601
 C         -3.7116770943        0.1918764617       -2.2268766477
 C         -2.8064146713       -0.1334643851       -1.2271500185
 H         -1.8213026050        0.3074816053       -1.1998200530
 H         -3.4204189520        0.9047802732       -2.9815896592
 H         -5.6655611603       -0.1335008102       -3.0275545787
 H         -6.3099073067       -1.7651493622       -1.2885526388
 H         -4.6734442844       -2.3435877660        0.5119381420
 H         -3.2587567986       -0.1188563731        2.4643769487
 H         -3.8120144320        2.0256767215        1.5248549621
 H         -2.9441678958        4.1559464946        0.6299269496
 H         -0.5494259672        4.4343279925        0.1799912762
 H          2.0001469486        2.4769899984        1.6033737370
 C          1.9298008740        3.8530642480       -0.0040206056
 C          3.1006726370        3.8782777695       -0.9393768461
 C          1.7213268391        4.1445334106       -1.4588123247
 H          1.4713630496        5.1550593086       -1.7473710028
 H          1.2389412756        3.3853477213       -2.0533766679
 H          3.7956745827        4.7016227512       -0.8690768295
 H          3.5652599333        2.9335675635       -1.1830340413
 H          1.8468022679        4.6939940166        0.6777826020
