  62
        -98.93520871
 C          1.6997400680        1.5205032540        0.2727648778
 C          2.3519596010        0.7265750863        1.2506764415
 C          3.2955602586       -0.2816836610        0.7535166882
 C          3.4736027749       -0.4125026831       -0.5736693009
 C          4.3800311187       -1.4169854084       -1.2234293023
 C          3.6369441409       -2.7217463382       -1.5398797347
 C          2.8356461369       -3.2753557134       -0.3619615425
 H          2.0217795976       -2.5845924338       -0.1313525031
 H          2.3850015128       -4.2147129357       -0.6891027427
 C          3.6605453667       -3.5243495506        0.9083594464
 H          3.3889311685       -4.4994170231        1.3183839403
 H          4.7222115649       -3.5630276852        0.6619493037
 C          3.4364742341       -2.4964603682        2.0190662342
 H          3.8862593624       -2.8840579483        2.9372110855
 H          2.3652645296       -2.3817833037        2.2032704872
 C          4.0339660514       -1.1055795622        1.7710473189
 H          5.0866761660       -1.2017530665        1.4964806978
 H          3.9750646563       -0.5465102522        2.7096036224
 H          4.3674908000       -3.4632731784       -1.8682913626
 H          2.9480662097       -2.5328934412       -2.3661339196
 H          4.7550355815       -0.9878265392       -2.1540869188
 H          5.2219647348       -1.6168277616       -0.5631937110
 O          2.8090050875        0.3409871007       -1.4823779868
 C          1.9088087380        1.3271466510       -1.0942910015
 O          1.3875609993        1.9264955870       -2.0488863292
 O          2.1574070169        0.8615085884        2.4901708425
 C          0.7436810964        2.5934617426        0.7816547165
 C         -0.6444503243        2.3413557105        0.2494466492
 C         -1.1678313757        2.8504094680       -0.9331767688
 C         -2.4475652616        2.5121447561       -1.3407455645
 C         -3.2348981912        1.6560598120       -0.5939360951
 C         -2.7164036788        1.1182142132        0.5768396461
 C         -1.4385091866        1.4664814239        0.9869703728
 H         -1.0415849816        1.0426055737        1.9009750351
 N         -3.4967192899        0.2334289042        1.3473176682
 S         -4.1557722737       -1.1073191277        0.5934676717
 O         -5.1908179871       -0.6819812031       -0.3134751937
 O         -4.5650775922       -1.9813996415        1.6683801349
 C         -2.8064743028       -1.8388331183       -0.3138072812
 C         -2.5710731648       -1.4530181398       -1.6180505430
 C         -1.4803079275       -1.9858532719       -2.2865575771
 C         -0.6518278432       -2.8928465946       -1.6448188245
 C         -0.9045929681       -3.2743367744       -0.3358256750
 C         -1.9872765621       -2.7373445643        0.3406714263
 H         -2.2212028621       -3.0119412014        1.3569076326
 H         -0.2604273983       -3.9837645546        0.1586290242
 H          0.1954918364       -3.3067849970       -2.1686086284
 H         -1.2783855299       -1.6882707047       -3.3030473260
 H         -3.2423595902       -0.7547623649       -2.0895268487
 H         -3.0522696800       -0.0428828217        2.2112254602
 H         -4.2328452118        1.3886991055       -0.9015969655
 H         -2.8357492994        2.9245204914       -2.2599022730
 H         -0.5730951551        3.4870773598       -1.5623044379
 H          0.6950355906        2.3982859801        1.8645849228
 C          1.3502850870        3.9867380695        0.6686617853
 C          1.5802192566        4.7500543933       -0.5997795980
 C          0.5562072493        5.2261245061        0.3861321448
 H          0.7765731394        6.1135151870        0.9608375114
 H         -0.4873971484        5.1118834445        0.1389915489
 H          2.5044028584        5.3051233911       -0.6818674089
 H          1.2694810535        4.3082604731       -1.5315344892
 H          2.1410248970        4.0930116900        1.4079978537
