  62
        -98.94471010
 C         -2.5646170997       -0.8421721411        0.2879077162
 C         -2.4979342580        0.0384443674       -0.8192781127
 C         -2.7870586744        1.4521523857       -0.5374009721
 C         -3.1205936778        1.8292445030        0.7090203140
 C         -3.3878308948        3.2407306796        1.1416946436
 C         -2.1127555788        3.9171968616        1.6631218614
 C         -0.9047487785        3.7766716456        0.7357945158
 H         -0.5827463949        2.7326034935        0.7007519080
 H         -0.0847202661        4.3425894289        1.1840897430
 C         -1.1380300791        4.2735897285       -0.6974611069
 H         -0.2660433784        4.8519087088       -1.0104390512
 H         -2.0011371753        4.9406083318       -0.7267563912
 C         -1.3186586571        3.1574854735       -1.7283798151
 H         -0.5118930421        2.4274659308       -1.6104289930
 H         -1.2194959435        3.5948881589       -2.7261317096
 C         -2.6635067710        2.4193696527       -1.6804307316
 H         -2.7492322071        1.8218113681       -2.5928190386
 H         -3.4805418383        3.1439193374       -1.6667975603
 H         -1.8547569404        3.4737715289        2.6274956551
 H         -2.3268782367        4.9760110220        1.8213869433
 H         -4.1286943624        3.2185370430        1.9429369975
 H         -3.7917572820        3.8020200176        0.3015030884
 O         -3.2189677198        0.9518296389        1.7392246716
 C         -2.9116937780       -0.3847321708        1.5637970142
 O         -2.9987720471       -1.0673890697        2.6041881660
 O         -2.2155069319       -0.3107924347       -1.9987354599
 C         -2.1852465280       -2.3168462447        0.2161458340
 C         -0.6797306352       -2.4072090249        0.2858952267
 C         -0.0340322658       -2.9498334828        1.3908253601
 C          1.3466038792       -2.9168984566        1.4889250899
 C          2.1095100266       -2.3150032970        0.5028003569
 C          1.4705423028       -1.7733135289       -0.6032382882
 C          0.0939068480       -1.8484694535       -0.7214919589
 H         -0.3879058818       -1.4059882311       -1.5806678481
 N          2.2314762818       -1.0559450173       -1.5661905665
 S          2.4774328952        0.5351294277       -1.0463171824
 O          1.3662915032        1.0120270956       -0.2536629043
 O          2.7965506007        1.2979606289       -2.2336444249
 C          3.9290005373        0.3797410507       -0.0293787419
 C          5.1344524050        0.1113639617       -0.6482997187
 C          6.2681563344       -0.0418543872        0.1334080524
 C          6.1767722335        0.0737297539        1.5127734648
 C          4.9590916184        0.3438474059        2.1185049654
 C          3.8210815731        0.4982317753        1.3418442222
 H          2.8519322025        0.7045845337        1.7679192494
 H          4.8891006028        0.4325070355        3.1907515467
 H          7.0598444222       -0.0474129950        2.1201168068
 H          7.2169196007       -0.2516478128       -0.3334987948
 H          5.1577243062        0.0353510668       -1.7225803981
 H          1.7605384182       -1.0142456447       -2.4613512668
 H          3.1827391576       -2.2547058225        0.5849607536
 H          1.8320198653       -3.3435171548        2.3532874222
 H         -0.6260783902       -3.3727771948        2.1895349910
 H         -2.5958265251       -2.7769839491        1.1246363180
 C         -2.7501001034       -3.0424069360       -0.9873745887
 C         -2.8642143931       -4.5357020665       -0.9427469464
 C         -4.0981924287       -3.6872614231       -0.8854703842
 H         -4.7480037855       -3.6576670264       -1.7470765557
 H         -4.6199981918       -3.6071696615        0.0571707210
 H         -2.6653140704       -5.0938096561       -1.8446639583
 H         -2.5509282504       -5.0340693141       -0.0378885600
 H         -2.4924470990       -2.5831192877       -1.9321608672
