  62
        -98.94796388
 C         -1.2525342592       -0.7685001359        0.3921081006
 C         -2.0885700296       -0.5798615074       -0.7341358480
 C         -3.0520467310        0.5232624909       -0.6316545859
 C         -3.0475920434        1.3192184826        0.4528299627
 C         -3.9497611860        2.5003963308        0.6880099543
 C         -5.3242918103        2.1326409506        1.2640756780
 C         -6.2814501256        1.4549875614        0.2825920567
 H         -7.2685752090        1.4525838885        0.7490406862
 H         -6.3517828492        2.0545053289       -0.6255161530
 C         -5.9022580302        0.0119730946       -0.0783953128
 H         -5.1892393676       -0.3714294115        0.6549801692
 H         -6.7900729127       -0.6219567985       -0.0245076400
 C         -5.3095553670       -0.1559639924       -1.4774816390
 H         -6.0604713763        0.1020176383       -2.2274513207
 H         -5.0441494799       -1.2073335400       -1.6134704870
 C         -4.0528514472        0.6858530621       -1.7355707490
 H         -4.3197967905        1.7356327889       -1.8571134015
 H         -3.5857144848        0.3346901326       -2.6591169058
 H         -5.7889163775        3.0584642380        1.6111569307
 H         -5.1768731035        1.4883822293        2.1339392015
 H         -3.4351938063        3.1454941851        1.4038676867
 H         -4.0784891586        3.0533031419       -0.2431487745
 O         -2.1785463777        1.1470245327        1.4846308307
 C         -1.2687630897        0.1025758520        1.4808935763
 O         -0.5330411288        0.0572326988        2.4892781830
 O         -2.0357769821       -1.2909080017       -1.7713722340
 C         -0.2339500079       -1.8926250382        0.4019825263
 C          0.7951156206       -1.6777195095       -0.6824184426
 C          1.3340961758       -2.7064174545       -1.4448190540
 C          2.3023017675       -2.4361284726       -2.3967392793
 C          2.7751005760       -1.1503205490       -2.5884797606
 C          2.2463595021       -0.1157736540       -1.8253930691
 C          1.2589562338       -0.3868242771       -0.8928332747
 H          0.8354551912        0.4303211745       -0.3293656968
 N          2.6997165839        1.2055837630       -1.9648490315
 S          2.8524357094        2.1485738234       -0.5897871979
 O          1.5609894803        2.6175605022       -0.1529094057
 O          3.7983672648        3.1773611589       -0.9686625537
 C          3.5955854049        1.0630225359        0.6159063870
 C          2.8686643323        0.5701730490        1.6797574902
 C          3.4800127639       -0.3205977446        2.5493714948
 C          4.7964319537       -0.7007720909        2.3440130109
 C          5.5169306473       -0.1882370304        1.2754058945
 C          4.9117005571        0.6984980888        0.4013061861
 H          5.4401551945        1.1275106290       -0.4345264553
 H          6.5429209651       -0.4801358912        1.1202610234
 H          5.2626089640       -1.3976575580        3.0224670071
 H          2.9114904127       -0.7121415190        3.3780881419
 H          1.8422530572        0.8714231289        1.8234244077
 H          3.4833182549        1.3235123004       -2.5902322074
 H          3.5371528130       -0.9449738821       -3.3242743101
 H          2.7042892882       -3.2422367609       -2.9912252877
 H          0.9910421642       -3.7174958822       -1.2992328928
 H          0.2885191529       -1.8181491448        1.3680542855
 C         -0.9236115931       -3.2389037760        0.3238248388
 C         -0.3233583682       -4.4359613370        0.9960580477
 C         -1.5550729021       -3.7979633081        1.5623529735
 H         -2.4972816707       -4.3173245485        1.4720796914
 H         -1.4625424529       -3.2186462870        2.4699415939
 H         -0.4225605760       -5.3990504825        0.5184786829
 H          0.6061114654       -4.2983395353        1.5275076173
 H         -1.4475654688       -3.3832723375       -0.6136415079
