  62
        -98.94290847
 C         -2.6308917733       -1.1965261736        0.2455803543
 C         -2.7718624000       -0.3282147232       -0.8639362860
 C         -3.8085862300        0.7088196139       -0.7430078383
 C         -4.5590465123        0.7751491705        0.3708736734
 C         -5.6065696855        1.8142109864        0.6439400008
 C         -5.0120905739        3.0239224523        1.3787202213
 C         -3.7357387382        3.5699695937        0.7386425037
 H         -3.4257075274        4.4392928563        1.3224612408
 H         -2.9432717659        2.8232953022        0.8293379452
 C         -3.8864843017        3.9718508663       -0.7352389777
 H         -4.9419369861        4.0976484460       -0.9792598589
 H         -3.4015950602        4.9386484149       -0.8860706508
 C         -3.2509239207        2.9958239810       -1.7272093450
 H         -3.2212541653        3.4786893472       -2.7077740106
 H         -2.2181868676        2.7935969478       -1.4312323651
 C         -3.9748071026        1.6543725343       -1.8997547339
 H         -5.0326336118        1.8305986424       -2.1044393042
 H         -3.5373935439        1.1497219610       -2.7662466012
 H         -4.7802026212        2.7264242124        2.4039044467
 H         -5.7680512782        3.8103844755        1.4156862231
 H         -6.0519189526        2.1302074007       -0.2973850157
 H         -6.3803808116        1.3651681628        1.2687912277
 O         -4.4104064312       -0.0855942001        1.4086700865
 C         -3.4485203119       -1.0780980150        1.3758253672
 O         -3.4211087312       -1.7927672232        2.3973491722
 H         -0.0686639946       -0.6236313131       -1.1296947010
 C          0.4296624436       -0.9544092105       -0.2303227237
 C         -0.2287178538       -1.8217665822        0.6296272683
 C          0.4246223891       -2.2336883591        1.7852851691
 C          1.7027129510       -1.7855572306        2.0695241164
 C          2.3526083094       -0.9154753367        1.2125127998
 C          1.7079399190       -0.4962920946        0.0561050891
 N          2.3454077001        0.4086639399       -0.8103874254
 S          3.9124524951        0.0690893423       -1.3048885854
 O          4.0821784482        0.7838040213       -2.5510216288
 O          4.1614838120       -1.3536194286       -1.3420685785
 C          4.9298858017        0.8327671186       -0.0586246551
 C          5.9053314825        0.0933674397        0.5811513149
 C          6.6964272405        0.7119875439        1.5368368855
 C          6.4992852013        2.0518068172        1.8336812288
 C          5.5163795395        2.7809251399        1.1808051053
 C          4.7235867906        2.1690754942        0.2230571448
 H          3.9518102340        2.7005804383       -0.3084763430
 H          5.3654344237        3.8224664100        1.4150019995
 H          7.1149931701        2.5309093392        2.5784439606
 H          7.4610896309        0.1470504438        2.0453517140
 H          6.0177659774       -0.9473941696        0.3222251859
 H          1.7719292638        0.6779007179       -1.5972677007
 H          3.3472775715       -0.5619233028        1.4301350195
 H          2.1979651356       -2.1149580690        2.9701753513
 H         -0.0811423756       -2.9025586310        2.4665132594
 C         -1.6145574533       -2.3273818257        0.3039540514
 H         -1.9383447774       -2.9681432799        1.1348936666
 C         -1.5912975003       -3.1660806408       -0.9603758833
 C         -1.0666932045       -4.5672424063       -0.8917683337
 C         -2.5323359668       -4.3238035964       -1.0899152556
 H         -2.9659109847       -4.5293538635       -2.0571172485
 H         -3.1985147576       -4.5206432267       -0.2622875665
 H         -0.4886764211       -4.9416661834       -1.7228234976
 H         -0.7393964608       -4.9323369338        0.0700084902
 H         -1.3827692340       -2.5936959342       -1.8546488762
 O         -2.0798021029       -0.3900701697       -1.9169578281
