  62
        -98.94178190
 C          1.9227824201        1.0756495500       -0.1692757006
 C          2.1388787502       -0.3221498600       -0.2556419296
 C          3.3881733904       -0.8127463294        0.3456514904
 C          4.2151211005        0.0375943311        0.9780887596
 C          5.5060005307       -0.3212712483        1.6624235495
 C          6.7113343805       -0.4060206888        0.7158320692
 C          6.7304250103       -1.6245814295       -0.2080780099
 H          7.7261105902       -1.6726093597       -0.6535065302
 H          6.5953788406       -2.5302784691        0.3840977308
 C          5.6878459900       -1.5825228804       -1.3339966397
 H          5.3239168499       -0.5594826005       -1.4544335403
 H          6.1593308698       -1.8674141211       -2.2772758896
 C          4.4923548102       -2.5123152604       -1.1260036087
 H          4.8297390503       -3.5511130804       -1.1382554280
 H          3.8002072699       -2.3731566711       -1.9603381586
 C          3.7201660205       -2.2649580695        0.1763402814
 H          2.7794479206       -2.8189788497        0.1277077420
 H          4.2944575608       -2.6264729489        1.0290422315
 H          6.7492270102        0.5066295307        0.1164748385
 H          7.6104132707       -0.4332934083        1.3358107290
 H          5.6980963709        0.4659997623        2.3946693688
 H          5.3904524510       -1.2672035979        2.1924963402
 O          3.9479709604        1.3661390912        1.0855109687
 C          2.8215487402        1.9149803806        0.4971541986
 O          2.7284823901        3.1514429007        0.6335585077
 H         -0.3882038196       -0.4046526998        0.3626161312
 C         -0.9246764496        0.4978194703        0.6160670707
 C         -0.4821233099        1.7144396100        0.1142060597
 C         -1.1865625199        2.8653113902        0.4465440390
 C         -2.3025342497        2.7982479006        1.2633214994
 C         -2.7418024194        1.5837910210        1.7591709304
 C         -2.0456870494        0.4276399508        1.4300860610
 N         -2.4901517991       -0.8198112489        1.9159868720
 S         -4.0490747492       -1.2728668494        1.4977261828
 O         -4.9867229191       -0.4569092689        2.2272654225
 O         -4.1163093590       -2.6958933892        1.7390090439
 C         -4.1689799097       -0.9293239406       -0.2475207374
 C         -3.7263405799       -1.8868781112       -1.1384134968
 C         -3.7509278203       -1.6035952722       -2.4943443970
 C         -4.2009963905       -0.3675671326       -2.9326060578
 C         -4.6395546004        0.5840379580       -2.0250904684
 C         -4.6260915700        0.3037789990       -0.6680813982
 H         -4.9663025098        1.0135168295        0.0675686714
 H         -4.9879732506        1.5443510377       -2.3690495990
 H         -4.2075845609       -0.1444202334       -3.9874903280
 H         -3.4105670404       -2.3427788527       -3.2014625666
 H         -3.3825420397       -2.8352409509       -0.7571976062
 H         -1.8514146691       -1.5716413590        1.6965373024
 H         -3.6124730192        1.5108605413        2.3908651307
 H         -2.8357215297        3.7014618008        1.5181373389
 H         -0.8456569501        3.8191280999        0.0712327082
 C          0.7225678898        1.7759804195       -0.7882002307
 H          1.0214612697        2.8328697894       -0.8671006216
 C          0.4271275995        1.2882953884       -2.2018337003
 C         -0.7502105905        0.4410767980       -2.5676900294
 C         -0.7124254508        1.8802059377       -2.9780642904
 H         -0.5587217411        2.1225408970       -4.0184305206
 H         -1.3644316107        2.5626465780       -2.4541702307
 H         -0.6009339007       -0.3209474225       -3.3169118388
 H         -1.4381199903        0.1517170685       -1.7895549589
 H          1.3425337194        1.0971625081       -2.7535995504
 O          1.3457322101       -1.1385234605       -0.7918971188
