  62
        -98.93717855
 C         -2.5803434652       -1.2859690321       -0.2742468720
 C         -2.1051071502       -0.0284412286       -0.7258898582
 C         -3.1227000989        1.0267986152       -0.8720422354
 C         -4.4097199223        0.7556611245       -0.5945153726
 C         -5.5327752993        1.7489768769       -0.6555898458
 C         -5.7385076669        2.4360923225        0.7015516358
 C         -4.4499518749        2.9761155403        1.3224495388
 H         -4.7212557238        3.4662187962        2.2600538243
 H         -3.7959213196        2.1385638923        1.5772012886
 C         -3.6818531841        3.9641942072        0.4335300978
 H         -3.3655324376        4.8118192807        1.0451513836
 H         -4.3411468704        4.3531065102       -0.3434372436
 C         -2.4205010295        3.3891834141       -0.2140610240
 H         -1.7954611825        2.9183485082        0.5500091567
 H         -1.8469447780        4.2194784277       -0.6351116720
 C         -2.6517218879        2.3747058411       -1.3411343159
 H         -3.3440118023        2.7918575569       -2.0753960379
 H         -1.6895126457        2.2026932347       -1.8324296500
 H         -6.4510377675        3.2524818903        0.5709562693
 H         -6.1739484728        1.7120440179        1.3940802261
 H         -5.3144674097        2.4907870408       -1.4212244376
 H         -6.4470577701        1.2180464923       -0.9259705073
 O         -4.8299485514       -0.4633951966       -0.1712324211
 C         -3.9304774914       -1.4969819201        0.0248989146
 O         -4.4488922390       -2.5444344904        0.4603456092
 O         -0.9048013000        0.2206679829       -1.0091352652
 C         -1.6548066433       -2.4646713150       -0.0133658136
 C         -0.4933716653       -2.0114623884        0.8350016192
 C         -0.6820538611       -1.8244928193        2.2008534553
 C          0.3474632063       -1.3595580406        2.9977091615
 C          1.5821333123       -1.0634256837        2.4473679264
 C          1.7745404629       -1.2326718954        1.0831381083
 C          0.7443492513       -1.7181646125        0.2873545250
 H          0.8956398789       -1.8289050303       -0.7750032100
 N          3.0238468090       -0.9327580699        0.5084321750
 S          3.8347803076        0.4362748448        1.0746006153
 O          4.5404600283        0.0753112808        2.2804015142
 O          2.9306189687        1.5580482394        1.1901095201
 C          5.0005970983        0.7063687101       -0.2457663477
 C          4.6215743045        1.4904068357       -1.3191552175
 C          5.5181125358        1.6815908188       -2.3586435196
 C          6.7697720852        1.0860160255       -2.3089025056
 C          7.1349202490        0.3009470335       -1.2255516351
 C          6.2436930520        0.1065393429       -0.1821261954
 H          6.4849502958       -0.4878180152        0.6835474666
 H          8.1094026995       -0.1587052677       -1.1903043375
 H          7.4652208629        1.2375140457       -3.1192730242
 H          5.2371234350        2.2930083768       -3.2011080855
 H          3.6411184302        1.9404449219       -1.3128514414
 H          2.9730646060       -0.9240671227       -0.5014772701
 H          2.3892600401       -0.6836419354        3.0532357105
 H          0.1879321075       -1.2190194137        4.0565681096
 H         -1.6524313200       -2.0373033343        2.6292552778
 H         -2.2562434669       -3.1661595719        0.5864435130
 C         -1.2213130265       -3.2248999712       -1.2581103097
 C         -2.2073975563       -3.5056666752       -2.3517557088
 C         -1.0537511397       -2.5836835302       -2.6012299562
 H         -0.2498930723       -2.9328957518       -3.2331228200
 H         -1.2474592985       -1.5265201858       -2.6867835273
 H         -2.2011183084       -4.4804980899       -2.8153750738
 H         -3.1934648932       -3.0757982960       -2.2498736028
 H         -0.5304874863       -4.0263570393       -1.0136995048
