  62
        -98.93912260
 C          1.4424013907        1.4204725907        0.2332613295
 C          2.1355697810        0.4939344110        1.0540745695
 C          3.1795314310       -0.2985409490        0.3965554794
 C          3.4121567606       -0.1335666992       -0.9177513207
 C          4.4334252905       -0.8770049093       -1.7349279709
 C          3.9506221806       -2.2490309894       -2.2266701704
 C          3.8532402510       -3.3329282692       -1.1516067002
 H          3.7203727510       -4.2846168293       -1.6702128600
 H          4.7970206412       -3.3885270090       -0.6082311604
 C          2.6959860613       -3.1467909192       -0.1594666699
 H          2.1789239614       -4.0995081692       -0.0245132696
 H          1.9683468510       -2.4449197494       -0.5747270699
 C          3.1221616415       -2.6580169888        1.2250182399
 H          2.2242939117       -2.5141044588        1.8300862901
 H          3.7405691618       -3.4179003486        1.7075089999
 C          3.8940139913       -1.3326602087        1.2129453794
 H          3.9555198616       -0.9626421885        2.2391377593
 H          4.9044087613       -1.4856717886        0.8348251691
 H          4.6559261304       -2.5879227195       -2.9890690406
 H          2.9777392204       -2.1246349797       -2.7086972202
 H          4.6494919502       -0.2555141194       -2.6066698210
 H          5.3508743607       -0.9972021890       -1.1582048311
 O          2.7216433603        0.7596657905       -1.6748679707
 C          1.7073919103        1.5422051705       -1.1315831506
 O          1.1376669200        2.2723244402       -1.9636686206
 H         -0.5871439793        0.0738055803       -0.4252072297
 C         -1.2871058194        0.8987044502       -0.4898034097
 C         -0.9574914295        2.1142550603        0.0978366499
 C         -1.8724652896        3.1554938402       -0.0029803200
 C         -3.0778898598        2.9794418999       -0.6617414497
 C         -3.3994740098        1.7654525697       -1.2407519693
 C         -2.4844806496        0.7262084098       -1.1647974594
 N         -2.8209330596       -0.5304438103       -1.7364559690
 S         -3.7128215991       -1.4971648802       -0.6961359986
 O         -3.8693508091       -2.7711157704       -1.3600367183
 O         -4.9216937291       -0.7947287203       -0.3529568884
 C         -2.6640961887       -1.6733783198        0.7349819512
 C         -1.7445855586       -2.7029718096        0.7603409112
 C         -0.8354927183       -2.7648603693        1.8040102209
 C         -0.8484152382       -1.7893650291        2.7893061307
 C         -1.7791054983       -0.7628040692        2.7497396708
 C         -2.6963566286       -0.6989688496        1.7128954510
 H         -3.4329114587        0.0855523103        1.6455050510
 H         -1.7807860782       -0.0046181491        3.5162204806
 H         -0.1220770279       -1.8188310288        3.5861049105
 H         -0.1132368282       -3.5651959292        1.8392205909
 H         -1.7626924987       -3.4368879798       -0.0300475587
 H         -2.0098752296       -1.0516057703       -2.0406011291
 H         -4.3388997999        1.6038052494       -1.7431651390
 H         -3.7760358099        3.8001297897       -0.7244406997
 H         -1.6429693597        4.1142309803        0.4319780597
 C          0.3279374807        2.2159188507        0.8826696096
 H          0.1579821111        1.6913611509        1.8397022097
 C          0.7020395406        3.6488349008        1.2419812092
 C          2.1239654305        4.1220701310        1.2132492987
 C          1.1442726502        4.6339164007        0.2026011089
 H          0.8083999401        5.6572516806        0.2852720387
 H          1.2250181200        4.2768014005       -0.8120641011
 H          2.8814760206        3.4272823311        0.8799253787
 H          2.4567643107        4.7873999812        1.9960423085
 H          0.0953333508        4.0411140209        2.0519501493
 O          1.8821646214        0.3300032912        2.2755562696
