  62
        -98.93816150
 C         -1.9875403703       -1.1293461182       -0.2650380481
 C         -3.0932457529       -1.1001861666        0.6251456668
 C         -4.3079917847       -0.4117858711        0.1619679494
 C         -4.3221921150        0.1392932179       -1.0633353008
 C         -5.4527863183        0.8504507000       -1.7636580779
 C         -6.2884217703        1.8372027570       -0.9372618623
 C         -5.5125982472        2.5905250593        0.1532451203
 H         -4.4392967964        2.4410040525        0.0220494032
 H         -5.7058351074        3.6601369015        0.0515521287
 C         -5.9160008574        2.1733790895        1.5696433422
 H         -5.6255130848        2.9651370954        2.2644472379
 H         -7.0037913901        2.0846674938        1.6118656983
 C         -5.2880448896        0.8751916217        2.0755062375
 H         -5.7417286187        0.6364700887        3.0404159133
 H         -4.2194598169        1.0253851537        2.2529683019
 C         -5.4398776100       -0.3399472836        1.1459035537
 H         -5.3648365762       -1.2424892198        1.7584432075
 H         -6.4066264101       -0.3374372347        0.6483254393
 H         -7.1248266192        1.3118249850       -0.4784809426
 H         -6.7159968049        2.5538054921       -1.6406633178
 H         -6.1152830864        0.0937358023       -2.1940428905
 H         -4.9831548651        1.3776794994       -2.5976995451
 O         -3.2420920751        0.0846529170       -1.8898827943
 C         -2.0554092130       -0.5296014498       -1.5211519358
 O         -1.1731983405       -0.4599632601       -2.4020808451
 O         -3.0701678145       -1.6446496544        1.7605565670
 C         -0.7394077182       -1.8430464368        0.2273101448
 C          0.2874582183       -0.8639950479        0.7451349534
 C          0.6989299307       -0.8957307199        2.0723088164
 C          1.6431437782        0.0021115113        2.5402239794
 C          2.1954995830        0.9478058573        1.6957077727
 C          1.7913457813        0.9857039837        0.3667977798
 C          0.8523576737        0.0786598918       -0.1024819467
 H          0.5382573013        0.1178283490       -1.1349246536
 N          2.3468609006        1.9403489368       -0.5020997412
 S          4.0075209474        2.1395556907       -0.4692201056
 O          4.3664092977        3.0191243539        0.6161059993
 O          4.3674578044        2.5965934751       -1.7931801481
 C          4.6675120314        0.5100005835       -0.1636569269
 C          5.4411985425        0.2794113210        0.9553904215
 C          5.9165192751       -1.0010505088        1.1896169948
 C          5.6068215391       -2.0241877689        0.3074688864
 C          4.8304904501       -1.7756083495       -0.8142096141
 C          4.3545178848       -0.4973447000       -1.0548982093
 H          3.7500607234       -0.2732260752       -1.9195243034
 H          4.5901303113       -2.5722095238       -1.4998585309
 H          5.9716981244       -3.0219566786        0.4931963790
 H          6.5219893530       -1.1965630779        2.0598652326
 H          5.6530968766        1.1033422389        1.6171777877
 H          1.9986782981        1.8768151655       -1.4475125258
 H          2.9220733867        1.6636088596        2.0448551124
 H          1.9499765710       -0.0319159649        3.5742691013
 H          0.2611353628       -1.6206630881        2.7426079935
 H         -1.0772277348       -2.4512033333        1.0769848621
 C         -0.1273395831       -2.7661047056       -0.8088823955
 C          0.7571699779       -3.8861289610       -0.3534875616
 C         -0.6065078559       -4.1825404253       -0.9000215267
 H         -0.6878616899       -4.6362822687       -1.8763816915
 H         -1.3774473249       -4.4941666386       -0.2103148435
 H          1.6163469767       -4.1397132735       -0.9546845950
 H          0.9131154405       -4.0001966756        0.7082923020
 H          0.1241154484       -2.2672013928       -1.7355650539
