  62
        -98.94149198
 C         -1.7575567837       -1.4280762394       -0.0551634928
 C         -2.9081216457       -0.8035078545        0.4815313559
 C         -3.3408393546        0.4518475238       -0.1545137030
 C         -2.6204871418        0.9442526468       -1.1771625089
 C         -2.8176564260        2.2533043279       -1.8893118413
 C         -1.9491835590        3.3432146565       -1.2356818519
 C         -2.6217484502        4.0930001372       -0.0871487153
 H         -1.8696500910        4.7544742204        0.3494528089
 H         -3.4255010270        4.7187187691       -0.4824424441
 C         -3.1877223928        3.2008084206        1.0205429549
 H         -2.4716786455        2.4056888411        1.2409786701
 H         -3.2821912475        3.8063955897        1.9244846692
 C         -4.5604905294        2.6038096864        0.6757090080
 H         -5.2521285106        2.7923620709        1.4995290962
 H         -4.9644994649        3.1237068320       -0.1929975713
 C         -4.5752163214        1.0886772488        0.4238089300
 H         -5.4278122017        0.8433904582       -0.2186587812
 H         -4.7362496894        0.5656295737        1.3718760342
 H         -1.0319561692        2.8726036674       -0.8688482026
 H         -1.6639825271        4.0724630793       -1.9971334088
 H         -2.4798681484        2.1065696386       -2.9172537825
 H         -3.8660307843        2.5373051832       -1.9000452712
 O         -1.5283071301        0.3074003239       -1.6739870542
 C         -1.0452482711       -0.8588459961       -1.1109747067
 O         -0.0028375660       -1.2835502142       -1.6457182622
 O         -3.5374548081       -1.2672702854        1.4726157330
 C         -1.2182508519       -2.6572648053        0.6558650417
 C          0.2546089617       -2.4645185440        0.9228845053
 C          1.2319601801       -3.4093614167        0.6402024883
 C          2.5667885622       -3.1349428527        0.8881488419
 C          2.9577055516       -1.9076599693        1.3903733401
 C          1.9858425336       -0.9559043577        1.6768226630
 C          0.6495716789       -1.2523910406        1.4773085405
 H         -0.0916365654       -0.5007159760        1.7094967064
 N          2.3195000352        0.3358927042        2.1424686638
 S          2.0373712602        1.5835079069        1.0525104849
 O          2.4654524133        2.7872856417        1.7340164778
 O          0.6668121397        1.5534072200        0.6151245025
 C          3.1650038333        1.2340321295       -0.2850892745
 C          2.8268722972        0.2886312580       -1.2322207859
 C          3.7600766706       -0.0377514731       -2.2056694137
 C          5.0024992109        0.5764394572       -2.2140569018
 C          5.3246084395        1.5249791774       -1.2544947120
 C          4.4008710562        1.8534432520       -0.2762846390
 H          4.6042139231        2.5848660073        0.4894009938
 H          6.2902878714        2.0043095144       -1.2634849304
 H          5.7226064519        0.3144726712       -2.9732460261
 H          3.5020115817       -0.7761661271       -2.9477996206
 H          1.8526346331       -0.1760451543       -1.2131689142
 H          3.2712178128        0.4108172935        2.4771165079
 H          4.0010599821       -1.6814572740        1.5522695274
 H          3.3146251356       -3.8797747297        0.6628937971
 H          0.9535871429       -4.3552888336        0.2056750271
 H         -1.7403547465       -2.6569235505        1.6282808458
 C         -1.5512631517       -3.9828434327       -0.0120003985
 C         -2.6942176089       -4.0996954057       -0.9744789239
 C         -1.2854916216       -4.2323231396       -1.4654601653
 H         -0.9386654425       -5.2113661640       -1.7622315481
 H         -0.8617438538       -3.4225947284       -2.0377333255
 H         -3.3129270758       -4.9835309843       -0.9299017247
 H         -3.2376341768       -3.1978862873       -1.2177523871
 H         -1.4085495069       -4.8234890914        0.6601280052
