  62
        -98.93707533
 C         -1.1639208884       -1.7257832972       -0.0768960768
 C         -1.8980060845       -0.9823222970        0.8779208030
 C         -2.9739629692       -0.1076618156        0.3736766996
 C         -3.1942136148       -0.0567829619       -0.9528584012
 C         -4.2220216730        0.7553384552       -1.6951463907
 C         -3.8412967330        2.2403620695       -1.8109987114
 C         -3.2619422353        2.8555152256       -0.5398807920
 H         -2.9193911424        3.8629524428       -0.7896997989
 H         -2.3874967668        2.2797558039       -0.2315966094
 C         -4.2347398701        2.9718703605        0.6309293563
 H         -5.0809696814        3.5947342298        0.3322019241
 H         -3.7121791431        3.4902098865        1.4386470481
 C         -4.7791485360        1.6535133206        1.1835273981
 H         -5.5470352129        1.2457774560        0.5314821432
 H         -5.2699103493        1.8781736813        2.1352127317
 C         -3.7223007167        0.5940836410        1.4807859047
 H         -4.1894029778       -0.2032293236        2.0718125797
 H         -2.9547570127        1.0226019737        2.1339907265
 H         -4.7247830773        2.8001809180       -2.1224678672
 H         -3.0885108377        2.3349173289       -2.5976225647
 H         -5.1939997699        0.6391360650       -1.2244101991
 H         -4.2886520811        0.3337029506       -2.7006711861
 O         -2.4346868849       -0.7581847084       -1.8420660600
 C         -1.4140700332       -1.6056211850       -1.4438684345
 O         -0.8213417443       -2.1617653691       -2.3889618639
 O         -1.6723576912       -1.0526090300        2.1158128423
 C         -0.1054123395       -2.6751829603        0.4405373034
 C          1.3124681197       -2.1838412482        0.2560547593
 C          2.3560493719       -2.8417856285        0.9022512170
 C          3.6614939465       -2.4054603440        0.7719359885
 C          3.9600691207       -1.3002190484       -0.0065279759
 C          2.9284174021       -0.6383387630       -0.6549586260
 C          1.6171569714       -1.0772891374       -0.5199098836
 H          0.8265485853       -0.5453265394       -1.0312377022
 N          3.2269795990        0.5121121580       -1.4231400425
 S          3.5787853709        1.8825660431       -0.5246647348
 O          3.7785810822        2.9475879013       -1.4798882599
 O          4.6860858149        1.5828288570        0.3454935444
 C          2.1078930498        2.2000712761        0.4343338103
 C          1.8197725079        1.3849164576        1.5117810445
 C          0.6361724530        1.5857464075        2.2048733857
 C         -0.2223129651        2.6041712143        1.8219321602
 C          0.0863154308        3.4216139579        0.7455110454
 C          1.2556084919        3.2097516109        0.0337995491
 H          1.5307882389        3.8133833199       -0.8162570539
 H         -0.5824621181        4.2163382884        0.4568981557
 H         -1.1392694009        2.7597934649        2.3685998861
 H          0.3790074666        0.9377165608        3.0275445035
 H          2.5185849702        0.6152893296        1.7968388821
 H          2.5034496483        0.7363319061       -2.0925860081
 H          4.9667844087       -0.9291702422       -0.1047217373
 H          4.4560287718       -2.9270662071        1.2829183740
 H          2.1361527837       -3.7008599156        1.5162000889
 H         -0.2876729994       -2.7430288570        1.5232600397
 C         -0.2557334550       -4.0631283893       -0.1606211930
 C         -0.0649106962       -5.2876302172        0.6808671278
 C         -1.4378364669       -4.9012461259        0.2218478426
 H         -1.9204822854       -5.4904993627       -0.5431014373
 H         -2.1213228399       -4.4904031739        0.9510616357
 H          0.4039488143       -6.1503410175        0.2329561138
 H          0.1620104237       -5.1546736757        1.7278994271
 H          0.0620923740       -4.1065983046       -1.1955181990
