  62
        -98.94493339
 C         -2.1923108915       -0.9545165655        0.5402256019
 C         -2.3464396735       -0.1737120108       -0.6311861853
 C         -3.1442802958        1.0500688299       -0.4783419104
 C         -3.6247110180        1.3910390849        0.7310442392
 C         -4.4329410247        2.6195242595        1.0502351028
 C         -5.9337810875        2.4718062316        0.7642582966
 C         -6.3171117565        2.4690844316       -0.7160739535
 H         -7.4018590011        2.5821738487       -0.7658482111
 H         -5.8763971258        3.3381942133       -1.2054657387
 C         -5.9187956564        1.1933422651       -1.4712409895
 H         -6.7585856248        0.8546858499       -2.0820361583
 H         -5.7027001053        0.3979903049       -0.7542920507
 C         -4.7182807918        1.3572289167       -2.4035439760
 H         -4.9688978092        2.0548116808       -3.2057322575
 H         -4.5004111460        0.3868801646       -2.8566515635
 C         -3.4424427478        1.8517165502       -1.7090970337
 H         -2.6026220390        1.7250954250       -2.3972277288
 H         -3.5332781855        2.9095706681       -1.4623452880
 H         -6.4402979962        3.3105400527        1.2473166910
 H         -6.2898342470        1.5525708976        1.2349328431
 H         -4.0371489697        3.4719286206        0.4970057111
 H         -4.3027182245        2.8081412979        2.1181858606
 O         -3.4013088162        0.6430114767        1.8451363212
 C         -2.6969995980       -0.5489287800        1.7748363879
 O         -2.5782623931       -1.1400434526        2.8683721958
 O         -1.8477447073       -0.4788156288       -1.7450026184
 C         -1.4134252189       -2.2574111018        0.4874073848
 C          0.0115528696       -1.9783731071        0.0732945425
 C          0.6601066076       -2.6434938003       -0.9579441734
 C          1.9633571911       -2.3153320389       -1.2910285186
 C          2.6487020371       -1.3324063617       -0.6015628678
 C          2.0116004410       -0.6654833530        0.4372068454
 C          0.7064031805       -0.9943979934        0.7666948988
 H          0.2075753776       -0.4707288112        1.5741647917
 N          2.7056440154        0.3224830063        1.1600692494
 S          3.4473590528        1.5554023805        0.2913738772
 O          3.5390364704        2.6639350990        1.2173425412
 O          2.7655271543        1.8144455023       -0.9556541423
 C          5.0835685799        0.9262651740       -0.0216038087
 C          5.5584112352        0.8568807579       -1.3166944330
 C          6.8374230402        0.3688530518       -1.5357924690
 C          7.6143453127       -0.0378135130       -0.4618638981
 C          7.1234789099        0.0411823714        0.8330856009
 C          5.8465302529        0.5294074516        1.0592479805
 H          5.4287491062        0.6109924944        2.0488008052
 H          7.7305842548       -0.2757899669        1.6656759877
 H          8.6083107622       -0.4189021579       -0.6352028384
 H          7.2205783364        0.3071678796       -2.5417112900
 H          4.9150070023        1.1785034521       -2.1202776308
 H          2.1701421249        0.7094831107        1.9241621200
 H          3.6617607839       -1.0726980803       -0.8615638434
 H          2.4528441590       -2.8339691799       -2.1011308824
 H          0.1424830477       -3.4104563992       -1.5097552995
 H         -1.3969723887       -2.6426846042        1.5175013753
 C         -2.1230309800       -3.2598718374       -0.3977297403
 C         -1.9545306941       -4.7288761495       -0.1560096333
 C         -3.2525078171       -4.0585090343        0.1775403257
 H         -4.1128523839       -4.2568872806       -0.4438855286
 H         -3.4948126952       -3.8962947736        1.2180889975
 H         -1.9264141038       -5.3920416284       -1.0072671007
 H         -1.3167323890       -5.0307233252        0.6608364631
 H         -2.2252672728       -2.9144445505       -1.4198574600
