  62
        -98.94457788
 C         -1.2104172822       -1.1876113845        0.1669140732
 C         -2.0291526967       -0.6443639582        1.1889962559
 C         -2.6703451230        0.6439522591        0.8943188263
 C         -2.4137259534        1.2511394570       -0.2780166474
 C         -3.0377016317        2.5384390460       -0.7317023954
 C         -4.3258019284        2.2806086848       -1.5261536611
 C         -5.2953347034        1.3212733922       -0.8358783096
 H         -4.8415321052        0.3287809432       -0.7863291152
 H         -6.1793495779        1.2385000822       -1.4716683997
 C         -5.7196026019        1.7531584795        0.5748146249
 H         -6.7990416879        1.6199819564        0.6725892969
 H         -5.5100828960        2.8139839653        0.7170111332
 C         -5.0694105998        0.9540376972        1.7060346996
 H         -5.1997044128       -0.1156240769        1.5219910627
 H         -5.5936990804        1.1909900090        2.6356961302
 C         -3.5777079666        1.2236539314        1.9421308215
 H         -3.2955154853        0.7410215713        2.8828812205
 H         -3.4085998213        2.2976968953        2.0473470740
 H         -4.0563314771        1.8552134541       -2.4954811258
 H         -4.8209500608        3.2375555337       -1.7001044577
 H         -2.3254646752        3.0642323579       -1.3698173185
 H         -3.2515365716        3.1570483674        0.1378996424
 O         -1.5783598302        0.7300297445       -1.2100439864
 C         -0.9461230192       -0.4948776323       -1.0151059227
 O         -0.1968786963       -0.8260987967       -1.9502237301
 O         -2.2144455673       -1.2120460972        2.2995439619
 C         -0.5331100370       -2.5180882922        0.4389755791
 C          0.9383596072       -2.4253725222        0.1213901290
 C          1.5788400411       -3.2298483874       -0.8113885141
 C          2.9357763640       -3.0872251406       -1.0424284925
 C          3.6768173863       -2.1442640526       -0.3553384125
 C          3.0458683519       -1.3342470094        0.5827352128
 C          1.6887290153       -1.4833644509        0.8162204953
 H          1.2068215988       -0.8502262993        1.5478930691
 N          3.7818845988       -0.3863437132        1.3174412931
 S          3.2187891358        1.1762777337        1.4892634509
 O          4.3536537428        1.9066031284        2.0119018321
 O          2.0255005406        1.1938541397        2.2967258706
 C          2.8633792348        1.7303606236       -0.1656945942
 C          3.9211650435        2.0635725876       -0.9896832756
 C          3.6576937125        2.4483629724       -2.2935343950
 C          2.3486601498        2.4860644410       -2.7505052264
 C          1.2984969117        2.1537710500       -1.9097572496
 C          1.5570435310        1.7707151207       -0.6036564959
 H          0.7670164483        1.5015678412        0.0807116574
 H          0.2803782890        2.1663370977       -2.2644670550
 H          2.1424374427        2.7773287202       -3.7683456743
 H          4.4703478886        2.7133489671       -2.9505717059
 H          4.9226133537        2.0329904773       -0.5918273415
 H          4.7690616758       -0.3788804689        1.1031147283
 H          4.7348786172       -2.0336760312       -0.5379144923
 H          3.4214099337       -3.7149010243       -1.7739569407
 H          1.0125771907       -3.9551951536       -1.3716137717
 H         -0.6286316727       -2.6510373396        1.5304074619
 C         -1.2201155308       -3.7150526953       -0.2015564750
 C         -2.6916539576       -3.6964302057       -0.4861733217
 C         -1.7101445917       -3.7020886527       -1.6174612810
 H         -1.6104605408       -4.6059454140       -2.2006296633
 H         -1.5711253073       -2.7968482755       -2.1866151816
 H         -3.2641388742       -4.5910929296       -0.2921342439
 H         -3.2287010932       -2.7821006239       -0.2783177905
 H         -0.8167896664       -4.6542299629        0.1649885256
