  62
        -98.94553219
 C         -1.0545630208       -1.7446837495       -0.1051470791
 C         -2.3633969109       -1.5354644785        0.3949268802
 C         -3.1044927000       -0.4074982982       -0.1780641006
 C         -2.5194814490        0.3682988410       -1.1077263606
 C         -3.1310060580        1.5749421311       -1.7667125014
 C         -3.0095416975        2.8579642014       -0.9320369918
 C         -3.9426399681        2.9391499725        0.2766097977
 H         -3.9307032176        3.9755986326        0.6200930273
 H         -4.9631708481        2.7081742630       -0.0317512227
 C         -3.5350254692        2.0326897827        1.4466991583
 H         -2.4870274393        1.7407915320        1.3353557089
 H         -3.6018625792        2.5953056131        2.3813872780
 C         -4.3984176200        0.7814305333        1.6116521184
 H         -3.9851931108        0.1880793634        2.4314407888
 H         -5.4149926000        1.0735564141        1.8863958278
 C         -4.4688428000       -0.1132103371        0.3679076087
 H         -5.0914988294        0.3528849629       -0.3956820818
 H         -4.9224550208       -1.0643883667        0.6585572789
 H         -1.9779209276        2.9607201809       -0.5843776314
 H         -3.2265131367        3.7013511813       -1.5921765123
 H         -4.1813572580        1.3832378217       -1.9886191418
 H         -2.5976986974        1.7218071604       -2.7084202512
 O         -1.2689172790        0.1263096700       -1.5773766099
 C         -0.4907363099       -0.9046867902       -1.0675887392
 O          0.6529291003       -0.9594051312       -1.5562389986
 O         -2.8839371618       -2.2541359278        1.2912334603
 C         -0.2158991318       -2.8281198698        0.5476919918
 C          1.1396802983       -2.2772975705        0.9214359422
 C          2.3256247480       -2.9895922913        0.7957721830
 C          3.5321164681       -2.4144698019        1.1575162133
 C          3.5893710988       -1.1111110117        1.6146983828
 C          2.4087710392       -0.3873519209        1.7357934320
 C          1.1999878189       -0.9857151503        1.4298673917
 H          0.2934530392       -0.4110861997        1.5502486410
 N          2.4052115398        0.9575397492        2.1561636114
 S          1.5915618810        2.0760720994        1.2165190306
 O          2.0753613016        3.3569146692        1.6957809403
 O          0.1667877308        1.8793806003        1.3137389000
 C          2.1343786316        1.8632977083       -0.4701378391
 C          3.4475587415        1.5328390374       -0.7370005383
 C          3.8545393721        1.4152212966       -2.0556260681
 C          2.9510790727        1.6397644068       -3.0818690286
 C          1.6405995228        1.9859793277       -2.7984150693
 C          1.2281799722        2.0987402685       -1.4814040696
 H          0.2117325923        2.3465990092       -1.2215778301
 H          0.9333158432        2.1564478578       -3.5943474097
 H          3.2682717231        1.5412272562       -4.1081925184
 H          4.8741531120        1.1440206259       -2.2779204175
 H          4.1384521810        1.3659392973        0.0727250721
 H          3.3110491399        1.3183088288        2.4205083317
 H          4.5340927489       -0.6572596822        1.8739615031
 H          4.4438866878       -2.9838137525        1.0609049240
 H          2.3116403675       -3.9926156814        0.4025648334
 H         -0.7540724324       -3.0572399790        1.4841119016
 C         -0.1412360723       -4.1316510201       -0.2364186777
 C         -1.0943631220       -4.4255240400       -1.3550499980
 C          0.3513415683       -4.1705418510       -1.6511380174
 H          0.9652131380       -5.0040849415       -1.9593536868
 H          0.6229445591       -3.2294643314       -2.1026909677
 H         -1.4740331626       -5.4319635198       -1.4507490778
 H         -1.8120826114       -3.6615535396       -1.6173130587
 H          0.1198915369       -4.9759024300        0.3939874128
