  62
        -98.93985064
 C          2.3430574641        0.9638558319        0.5006225219
 C          2.6145174563        0.0490102034       -0.5465923431
 C          3.5817125000       -1.0131634623       -0.2308212487
 C          4.1075294544       -1.1046967005        1.0031494456
 C          5.0734181262       -2.1538007051        1.4828231312
 C          6.5409216945       -1.8509028897        1.1508328554
 C          6.9211369900       -2.0113211628       -0.3216211727
 H          8.0111650381       -1.9820518110       -0.3761476858
 H          6.6041759707       -2.9937946643       -0.6728631517
 C          6.3519875716       -0.9244225447       -1.2442145127
 H          6.0293770583       -0.0701004910       -0.6445246552
 H          7.1375424167       -0.5665216268       -1.9135796208
 C          5.1856342752       -1.3828165777       -2.1198016891
 H          5.5305501615       -2.1486051725       -2.8181947080
 H          4.8382484457       -0.5269556580       -2.7044550567
 C          3.9887350033       -1.9391703520       -1.3375232698
 H          3.1433089017       -2.0302734528       -2.0241516225
 H          4.2248819130       -2.9264002356       -0.9409627452
 H          6.7703626762       -0.8341428652        1.4778738936
 H          7.1557610811       -2.5357995279        1.7391909647
 H          4.9683587513       -2.1977147772        2.5689589670
 H          4.7979067181       -3.1235384745        1.0673260609
 O          3.7895194172       -0.2318165094        1.9953630978
 C          2.9292087794        0.8269204699        1.7633009222
 O          2.7632602811        1.5727584791        2.7488500070
 H          0.0212151763        0.1292421286       -0.7788348373
 C         -0.5829656404        0.6810899029       -0.0735716104
 C         -0.0247055664        1.7593785122        0.5991410279
 C         -0.8191710119        2.4703846643        1.4902950454
 C         -2.1382571027        2.1073108710        1.7002579391
 C         -2.6898683072        1.0306000104        1.0293375361
 C         -1.9046432315        0.3142956289        0.1352525986
 N         -2.4489323465       -0.7894639922       -0.5446614408
 S         -3.9100779646       -0.5777858652       -1.3447070377
 O         -3.9266948295       -1.5845768736       -2.3829553261
 O         -4.0844004893        0.7909113494       -1.7731817420
 C         -5.1296788052       -0.9943883754       -0.1161922982
 C         -6.1459744037       -0.1063496656        0.1768168149
 C         -7.0901644541       -0.4591598611        1.1286648827
 C         -7.0021043730       -1.6872586302        1.7659450823
 C         -5.9763053814       -2.5688415902        1.4584618533
 C         -5.0299868508       -2.2227766892        0.5072866290
 H         -4.2191638821       -2.8790037128        0.2378552247
 H         -5.9107974252       -3.5227987974        1.9565424446
 H         -7.7371213550       -1.9594701845        2.5068694115
 H         -7.8884619543        0.2244545574        1.3690778738
 H         -6.1706768702        0.8397234747       -0.3401204245
 H         -1.7814192410       -1.2567910665       -1.1419472223
 H         -3.7165040467        0.7440730948        1.1889583938
 H         -2.7438828738        2.6675432148        2.3960577652
 H         -0.3929415437        3.3055306931        2.0267545967
 C          1.4083504117        2.1537831475        0.3492224325
 H          1.7027109841        2.8511495662        1.1491211297
 C          1.5975356916        2.8831648044       -0.9757171007
 C          0.5724941270        2.9192764401       -2.0656468962
 C          0.8370927928        4.1468276511       -1.2498909668
 H          1.3548505756        4.9755723010       -1.7084303671
 H          0.0836730106        4.4367516371       -0.5329224354
 H          0.9270542751        2.8827570481       -3.0847530880
 H         -0.3616785530        2.3995750277       -1.9171974692
 H          2.6333226993        2.8634781892       -1.3000136954
 O          2.0852983622        0.0889073432       -1.6883201441
