  62
        -98.93898141
 C         -1.3267751829        0.8371758532       -0.2572119084
 C         -1.8840968727       -0.3453784867       -0.8080282135
 C         -2.8637077518       -1.0526160461        0.0269321140
 C         -3.1334084510       -0.5852765396        1.2591885203
 C         -4.1450086277       -1.1757747058        2.1971987682
 C         -5.5237869596       -0.5279389664        2.0080548002
 C         -5.9825639698       -0.4643821405        0.5511206097
 H         -6.9790032896       -0.0174128631        0.5436360910
 H         -5.3245047530        0.2108095813       -0.0007500727
 C         -6.0258653140       -1.8234269061       -0.1615149141
 H         -6.0271275695       -2.6278474338        0.5749834876
 H         -6.9609454852       -1.8955150280       -0.7209076135
 C         -4.8897366345       -2.0517243739       -1.1601626559
 H         -4.8267504335       -1.2009607000       -1.8433292994
 H         -5.1351724558       -2.9335344375       -1.7578331643
 C         -3.5022510114       -2.2847901487       -0.5494034997
 H         -3.5592128688       -3.0764845373        0.2005609863
 H         -2.8378234362       -2.6170120834       -1.3522979071
 H         -6.2519613561       -1.0889998187        2.5966602147
 H         -5.4841636343        0.4912749403        2.3997010662
 H         -4.2099765449       -2.2485521644        2.0247083695
 H         -3.8086746976       -1.0014170590        3.2208020808
 O         -2.5318167389        0.5140639968        1.7799869356
 C         -1.6132174199        1.2543925770        1.0434189254
 O         -1.1348979610        2.2219628418        1.6632359565
 H          0.9079294983       -0.1414583441        0.5102795979
 C          1.4723489752        0.7805822890        0.4325661167
 C          0.9661270732        1.8197028757       -0.3389867601
 C          1.7076477626        2.9914306476       -0.4230126876
 C          2.9180955543        3.1118640101        0.2394994427
 C          3.4186966005        2.0707273774        0.9997538286
 C          2.6775044705        0.9030120637        1.1039062269
 N          3.2046558453       -0.1859742079        1.8484784639
 S          4.2785134627       -1.1118973688        0.9500788323
 O          4.5639854024       -2.2848557002        1.7447183411
 O          5.4024642033       -0.2847120709        0.5958226328
 C          3.3492303952       -1.5568497438       -0.5053659734
 C          3.3166474723       -0.6797652217       -1.5711790101
 C          2.4755842641       -0.9548940446       -2.6376056434
 C          1.6815812586       -2.0910158319       -2.6184004976
 C          1.7320023057       -2.9656303261       -1.5438744589
 C          2.5664594930       -2.6937783769       -0.4718242378
 H          2.6285956151       -3.3437540830        0.3869746216
 H          1.1115557826       -3.8475060549       -1.5330785317
 H          1.0087070731       -2.2891566594       -3.4374398129
 H          2.4302989501       -0.2750218222       -3.4731845093
 H          3.9440540345        0.1965749313       -1.5464063201
 H          2.4831796216       -0.7963320922        2.2078897386
 H          4.3682913864        2.1379011417        1.5046657391
 H          3.4801820428        4.0298107289        0.1599398954
 H          1.3372424964        3.8195646221       -1.0043738291
 C         -0.3130896972        1.5826899094       -1.1030212652
 H         -0.0725951934        0.8690397186       -1.9108603406
 C         -0.8542628037        2.8337929464       -1.7825442517
 C         -2.3257505980        3.1053812203       -1.8698156639
 C         -1.4565255265        3.9636898135       -1.0033887120
 H         -1.2538560277        4.9754046858       -1.3233383755
 H         -1.5242858537        3.8455777532        0.0665500441
 H         -2.7167951373        3.5213135961       -2.7864379605
 H         -2.9960406410        2.4100228080       -1.3851643263
 H         -0.2736194325        3.1073421528       -2.6578203484
 O         -1.5654975674       -0.7928234809       -1.9405131248
