  62
        -98.93642250
 C         -1.4244152889       -1.2257114004        0.2322305979
 C         -2.4392872491       -0.8471908516        1.1421133383
 C         -3.1491065797        0.4195218282        0.8743896794
 C         -2.7523240801        1.1721249993       -0.1683029000
 C         -3.3396046408        2.4700308094       -0.6555498989
 C         -4.6612132507        2.2729974894       -1.4163402790
 C         -5.6346206602        1.2882502484       -0.7738612198
 H         -6.4718940602        1.1513062286       -1.4632673499
 H         -5.1451751097        0.3187268886       -0.6641496706
 C         -6.2065798204        1.7227471870        0.5734163906
 H         -6.7354460108        2.6704975669        0.4495489914
 H         -6.9409141400        0.9703222364        0.8726116700
 C         -5.1950183704        1.8772470866        1.7108727407
 H         -5.7627606504        1.9534386755        2.6429801507
 H         -4.6360983508        2.8043838769        1.6151039914
 C         -4.2401923798        0.6993421169        1.8797318096
 H         -3.7319813598        0.7996336363        2.8468953497
 H         -4.8233690094       -0.2255220435        1.9585179989
 H         -5.1440512812        3.2454182493       -1.5265444282
 H         -4.4229390306        1.8992426904       -2.4150384394
 H         -3.4690589211        3.1571732287        0.1755683517
 H         -2.6107000010        2.9099890404       -1.3395634886
 O         -1.7236154600        0.8005752805       -0.9807868304
 C         -1.0369599294       -0.3928721193       -0.8192051814
 O         -0.1303768693       -0.5720358082       -1.6496927316
 H          0.6789577209       -0.7233848207        1.8650995883
 C          1.3371903411       -1.2755384699        1.2045791978
 C          0.8037980716       -2.2805423194        0.4058207270
 C          1.6574828819       -2.9741394883       -0.4403158136
 C          3.0053789417       -2.6604406776       -0.4874754734
 C          3.5287812713       -1.6513592380        0.2985285774
 C          2.6819226810       -0.9504321992        1.1479949780
 N          3.1983758505        0.0985711304        1.9340296889
 S          4.0846430799        1.2704782215        1.1261774198
 O          5.4278634401        0.7892049824        0.9197026694
 O          3.9607079193        2.4614416508        1.9381938408
 C          3.2689517997        1.4935611025       -0.4428229600
 C          2.0086189494        2.0569215918       -0.4458429795
 C          1.3446263293        2.2078207825       -1.6509067493
 C          1.9461130595        1.7867020238       -2.8260630497
 C          3.2113072498        1.2228471044       -2.8065136002
 C          3.8825670199        1.0726261837       -1.6040376504
 H          4.8678296201        0.6399050341       -1.5444693708
 H          3.6733477699        0.8931440954       -3.7231095805
 H          1.4183009994        1.8930094443       -3.7603792296
 H          0.3541241391        2.6334604521       -1.6685250089
 H          1.5677904893        2.3736241009        0.4869733308
 H          2.5041376403        0.5345451096        2.5238189793
 H          4.5732771211       -1.3870813775        0.2654837176
 H          3.6562698220       -3.2043765568       -1.1547521539
 H          1.2654099922       -3.7441698880       -1.0836106943
 C         -0.6821151883       -2.5243516802        0.4933824668
 H         -0.9240800681       -2.7711957912        1.5411877366
 C         -1.1566213278       -3.6998752098       -0.3470630441
 C         -2.5513123978       -3.7438990400       -0.8941508341
 C         -1.3871546579       -3.5867040987       -1.8232485240
 H         -1.1173256475       -4.4247012680       -2.4492392647
 H         -1.2173936384       -2.6255857082       -2.2817901032
 H         -3.0788272273       -4.6859259103       -0.8795014649
 H         -3.1853623482       -2.8868957104       -0.7185353034
 H         -0.7552430573       -4.6424272099        0.0125385351
 O         -2.7489248887       -1.5394042226        2.1503980877
