  62
        -98.94569723
 C         -1.5091871854       -1.3427614545       -0.6934329990
 C         -2.7957888698       -1.1678027432       -0.1190573348
 C         -3.5315528472        0.0361999332       -0.5138548146
 C         -2.9823227710        0.8900070931       -1.3961142860
 C         -3.6014836301        2.1654114860       -1.8994031125
 C         -3.3772140112        3.3641430629       -0.9674950238
 C         -4.2017043121        3.3467411572        0.3204386553
 H         -5.2519835210        3.1820834646        0.0767929301
 H         -4.1209085934        4.3405523365        0.7653568272
 C         -3.7411429622        2.3076135968        1.3526555781
 H         -3.6979844829        2.7716984269        2.3409702538
 H         -2.7252842859        1.9807329436        1.1134689120
 C         -4.6479824061        1.0816710756        1.4681018602
 H         -5.6277161702        1.3862417703        1.8431895743
 H         -4.2045323853        0.3977866545        2.1964719471
 C         -4.8439377055        0.3125097476        0.1552224442
 H         -5.5023261716        0.8679696949       -0.5122914087
 H         -5.3080404120       -0.6491531948        0.3876585543
 H         -3.6342708769        4.2669061694       -1.5268176547
 H         -2.3141459826        3.4177012748       -0.7176103071
 H         -4.6702951652        2.0196508666       -2.0587377883
 H         -3.1310839574        2.3833153973       -2.8606099796
 O         -1.7685884568        0.6689986680       -1.9588438149
 C         -0.9838246376       -0.4174602982       -1.5950799590
 O          0.1226396872       -0.4337545355       -2.1694770517
 O         -3.3076501983       -1.9902891488        0.6879223039
 C         -0.7202226539       -2.5454716538       -0.2012342324
 C          0.0609542824       -2.1485283157        1.0304695252
 C         -0.1389057106       -2.7961527347        2.2429450006
 C          0.5354692846       -2.3815137293        3.3779860779
 C          1.3994218023       -1.3039519842        3.3263891864
 C          1.6093788421       -0.6494809498        2.1154511335
 C          0.9630483194       -1.0945555220        0.9725317464
 H          1.1227849170       -0.5837309192        0.0380791944
 N          2.4815111874        0.4424382644        2.0495899519
 S          2.3184885817        1.7039810250        0.9579933755
 O          2.8516658021        2.8492273923        1.6695064444
 O          0.9647094403        1.8338370583        0.4760899456
 C          3.4684101119        1.2672369015       -0.3294840276
 C          3.0390673386        0.7955136873       -1.5521748218
 C          3.9886848110        0.4487015991       -2.5029363439
 C          5.3384516261        0.5791200239       -2.2191431492
 C          5.7532153781        1.0587118214       -0.9852049233
 C          4.8117520761        1.4054062207       -0.0315124267
 H          5.0882889890        1.7945954072        0.9342544867
 H          6.8037303642        1.1619058902       -0.7659893596
 H          6.0696894010        0.3066725830       -2.9639154646
 H          3.6586161806        0.0752027168       -3.4593379938
 H          1.9837447776        0.6919454684       -1.7548500403
 H          2.8325027798        0.7622246391        2.9397722681
 H          1.9052208825       -0.9617353381        4.2165090133
 H          0.3716576753       -2.8894023149        4.3163559420
 H         -0.8457792004       -3.6106872458        2.2978540305
 H         -1.4760259605       -3.2805772267        0.1089808425
 C          0.1784092470       -3.1910391405       -1.2345901093
 C          0.5570729864       -4.6311002356       -1.0658596362
 C         -0.3894675933       -4.2272635353       -2.1553840319
 H         -0.0453279690       -4.2487736945       -3.1782286814
 H         -1.4346017623       -4.4766724366       -2.0423440965
 H          1.5559054759       -4.9343869702       -1.3388409805
 H          0.1531828391       -5.1594986386       -0.2156324267
 H          0.9215778025       -2.5195903563       -1.6428198892
