  62
        -98.94198396
 C         -0.9556823291       -1.0816003610        0.6992394999
 C         -1.6013999892       -0.9992827309       -0.5555468901
 C         -2.3619402999        0.2350095587       -0.8189465196
 C         -2.3545663206        1.2170006284        0.0979996307
 C         -3.0858519814        2.5300476279        0.0392778512
 C         -4.4559119313        2.4237816668        0.7307933312
 C         -5.5960129810        1.9449327664       -0.1668065790
 H         -6.4693037309        1.7919097356        0.4713060809
 H         -5.8454094715        2.7327361165       -0.8806985187
 C         -5.3213392902        0.6533989169       -0.9413247395
 H         -4.8275560898       -0.0696009130       -0.2896543298
 H         -6.2831024099        0.2254142264       -1.2304415397
 C         -4.4777834103        0.8749888579       -2.2059341194
 H         -4.9733661800        0.4056144879       -3.0584024496
 H         -4.4340761910        1.9420460880       -2.4241574090
 C         -3.0537034300        0.3013219288       -2.1524775396
 H         -2.4104035603        0.8601133094       -2.8418282094
 H         -3.0635218093       -0.7333093911       -2.5106414300
 H         -4.3486553309        1.7470416766        1.5821962809
 H         -4.7260997520        3.4056863665        1.1244666515
 H         -3.1854251316        2.8668068582       -0.9885807587
 H         -2.4754616019        3.2529010281        0.5852401615
 O         -1.6851949905        1.1131934584        1.2796412107
 C         -0.9665834398       -0.0235754913        1.6056302703
 O         -0.3883437299        0.0299217786        2.7098723203
 O         -1.5575056786       -1.9179392306       -1.4165049204
 C         -0.1075112384       -2.2950994706        1.0391674195
 C          1.0040313317       -2.4000742995        0.0224031294
 C          1.3541036024       -3.5727637390       -0.6323383510
 C          2.3551932224       -3.5630912681       -1.5891857810
 C          3.0116687717       -2.3924392275       -1.9216078705
 C          2.6783829310       -1.2159532880       -1.2588442301
 C          1.7032635310       -1.2376063789       -0.2773511901
 H          1.4473983004       -0.3234635093        0.2381922602
 N          3.3252534202       -0.0059777475       -1.5484875197
 S          2.4965521593        1.4407536620       -1.4116209991
 O          1.1089455094        1.3185814012       -1.7950935392
 O          3.2854849087        2.3723706127       -2.1925242088
 C          2.6402157390        1.8719242414        0.3087949510
 C          3.8592848091        1.7089847220        0.9365725710
 C          3.9740239889        2.0598307315        2.2718663711
 C          2.8767447286        2.5671503906        2.9514405913
 C          1.6621459185        2.7324536001        2.3047917313
 C          1.5421074687        2.3842861005        0.9692987612
 H          0.6095290486        2.4791970501        0.4338733212
 H          0.8035082082        3.1130134493        2.8341543515
 H          2.9645624584        2.8324663003        3.9931614314
 H          4.9160414790        1.9324072919        2.7805919311
 H          4.6876485294        1.3075138727        0.3771350008
 H          3.9422855302       -0.0231197868       -2.3471659297
 H          3.7707136117       -2.3836116268       -2.6887922505
 H          2.6147488130       -4.4789484677       -2.0982983813
 H          0.8347411430       -4.4896264294       -0.4068400713
 H          0.3431027615       -2.0858679506        2.0205835495
 C         -0.9587039876       -3.5419612411        1.1449978290
 C         -0.5310705969       -4.6716540912        2.0318256586
 C         -1.6929532574       -3.8102992821        2.4231559189
 H         -2.6877094172       -4.2263565627        2.3686187087
 H         -1.5593482479       -3.1029626123        3.2288813992
 H         -0.7304748863       -5.6830222712        1.7112639882
 H          0.3917458230       -4.5550053208        2.5795207886
 H         -1.4654213174       -3.7795203711        0.2168893689
