  62
        -98.93521813
 C         -1.7948568796       -1.7273202801       -0.0732502001
 C         -1.5117900993       -0.3881777500       -0.4410007297
 C         -2.6672821592        0.5278245602       -0.4694035894
 C         -3.8919360993        0.0604147103       -0.1715390995
 C         -5.1456257691        0.8838757005       -0.0867099792
 C         -5.1730382989        1.6607699101        1.2451543011
 C         -5.0885960087        3.1797338901        1.0921014715
 H         -6.0589429686        3.5572468304        0.7624473917
 H         -4.8931212386        3.5970652997        2.0822986417
 C         -4.0287138986        3.6961589002        0.1142309917
 H         -3.9128720185        4.7644471101        0.3095301420
 H         -4.3988531487        3.6057358606       -0.9080711384
 C         -2.6504131887        3.0271209800        0.1992894614
 H         -2.4919542588        2.5978461396        1.1888884613
 H         -1.8924774486        3.8006910799        0.0617073816
 C         -2.3919211190        1.9502973303       -0.8707435690
 H         -2.9568453990        2.1916269806       -1.7753613289
 H         -1.3289678890        1.9611013602       -1.1285448290
 H         -6.0898644290        1.4224584100        1.7866870610
 H         -4.3441598490        1.3092696397        1.8634759109
 H         -5.1961954990        1.5677551007       -0.9309505290
 H         -5.9904220092        0.1969132506       -0.1425658994
 O         -4.1228346195       -1.2330411398        0.1761129801
 C         -3.0858479196       -2.1472054900        0.2564011498
 O         -3.4351551498       -3.2851001500        0.6294080594
 H          1.8345685903       -2.1864185604       -0.8747075204
 C          1.6962346504       -1.9281554107        0.1634242597
 C          0.4789278304       -2.1696933207        0.7783102796
 C          0.3207084705       -1.7967436911        2.1100005897
 C          1.3519433606       -1.1918313715        2.8028602399
 C          2.5646357207       -0.9452771215        2.1830906899
 C          2.7306279006       -1.3109257811        0.8543961398
 N          3.9584633006       -1.0649309611        0.2094033198
 S          4.5694830408        0.4934567088        0.2092271903
 O          5.6473218008        0.4679899289       -0.7544653797
 O          4.9318945909        0.8595717783        1.5556353004
 C          3.2538546610        1.5416437092       -0.3791295593
 C          3.1163324210        1.7207662296       -1.7406990292
 C          2.0854394411        2.5163181199       -2.2108725289
 C          1.2103323312        3.1099987498       -1.3152506587
 C          1.3549183112        2.9100440293        0.0480944212
 C          2.3853409211        2.1171882290        0.5247945409
 H          2.5320205611        1.9428359987        1.5782000309
 H          0.6646579113        3.3628904192        0.7419210514
 H          0.4095228613        3.7321293601       -1.6844808185
 H          1.9637669311        2.6674797003       -3.2717141789
 H          3.8249238209        1.2496074697       -2.4032815194
 H          3.9903160005       -1.4326247308       -0.7311546203
 H          3.3762315408       -0.4632397618        2.7037491601
 H          1.2119050807       -0.9065304818        3.8349088500
 H         -0.6314663895       -1.9760261811        2.5917480497
 C         -0.6967218597       -2.7713559803        0.0500983295
 H         -1.1247995298       -3.5610398104        0.6888711192
 C         -0.3151236099       -3.4372309600       -1.2635170708
 C         -1.3359546900       -3.6519203394       -2.3396631208
 C         -0.2165152398       -2.6798900496       -2.5526810705
 H          0.5670143001       -2.9500925495       -3.2461755006
 H         -0.4376308596       -1.6246394995       -2.5321793902
 H         -2.3294407099       -3.2629048893       -2.1702297206
 H         -1.3206847501       -4.5851656193       -2.8823894611
 H          0.3999121200       -4.2410287301       -1.1137981910
 O         -0.3656808993        0.0355888399       -0.7361881996
