  62
        -98.94176133
 C          2.1983130789        1.2615981026        0.2987885804
 C          1.8031404664        0.3173327796       -0.6811777995
 C          2.6118876773       -0.9127523560       -0.7457775584
 C          3.6345466529       -1.0826520855        0.1107788968
 C          4.5203013618       -2.2931515191        0.1662586448
 C          3.9781543264       -3.3403925098        1.1485609855
 C          2.4967236374       -3.6612646008        0.9505222525
 H          2.2306087329       -4.4351481088        1.6739848508
 H          1.9047792814       -2.7764590981        1.1976481163
 C          2.1342392631       -4.1353568770       -0.4638615953
 H          3.0335654828       -4.4646896952       -0.9854319503
 H          1.4713530845       -4.9994855506       -0.3831145121
 C          1.4047838633       -3.0932862344       -1.3136805623
 H          0.5570535655       -2.6976735971       -0.7489562211
 H          1.0029606862       -3.5995117296       -2.1953964661
 C          2.2553625535       -1.9158007738       -1.8074387199
 H          3.1559164830       -2.2944576470       -2.2952754844
 H          1.6688768866       -1.3667187153       -2.5500131812
 H          4.5671429858       -4.2529637803        1.0409163451
 H          4.1153704889       -2.9663768367        2.1659754068
 H          4.6018614313       -2.7228433240       -0.8303208021
 H          5.5110730809       -1.9771366326        0.4975386894
 O          3.9535347508       -0.1747479370        1.0687754319
 C          3.2400830641        1.0069576521        1.1942402240
 O          3.6188234459        1.7348250905        2.1338643991
 O          0.8358757269        0.4780566533       -1.4665856730
 C          1.4784081728        2.5886751607        0.4652811146
 C         -0.0186642020        2.3994543877        0.4059581639
 C         -0.8612849446        3.1558419056       -0.3980282119
 C         -2.2300109054        2.9488056585       -0.3722980639
 C         -2.7876423607        1.9789390047        0.4390330617
 C         -1.9509615825        1.1989111368        1.2281187138
 C         -0.5837378962        1.4248617954        1.2199634771
 H          0.0635120716        0.8212841688        1.8456574768
 N         -2.4998147883        0.1810646226        2.0242133005
 S         -3.7534899020       -0.7348687778        1.4015320723
 O         -5.0051923320       -0.0591729456        1.6427818789
 O         -3.6151167423       -2.0315871492        2.0293143033
 C         -3.4784909544       -0.8609657484       -0.3575479492
 C         -4.5247065463       -0.6066037636       -1.2215798633
 C         -4.3069804371       -0.7073422005       -2.5860975485
 C         -3.0507884256       -1.0513376124       -3.0607859908
 C         -2.0107581601       -1.3059585699       -2.1805805833
 C         -2.2261604099       -1.2157851894       -0.8158361029
 H         -1.4283192988       -1.4003344682       -0.1137664627
 H         -1.0267032874       -1.5520506879       -2.5441944053
 H         -2.8772830890       -1.1188866085       -4.1231300398
 H         -5.1139761082       -0.5106043361       -3.2734743603
 H         -5.4806447419       -0.3278383430       -0.8083537145
 H         -1.8162871548       -0.3972907780        2.4892485884
 H         -3.8521390811        1.8117807841        0.4749652928
 H         -2.8722752498        3.5490998223       -0.9981809622
 H         -0.4484724246        3.9000181444       -1.0582158214
 H          1.7264042829        2.9176673380        1.4887833539
 C          1.9820972818        3.6792605856       -0.4706903100
 C          3.3519875458        3.6168402874       -1.0760979448
 C          2.1419738159        3.4493270975       -1.9425523551
 H          1.8831515783        4.2504674413       -2.6192294231
 H          1.9097868849        2.4658023951       -2.3184713075
 H          3.9185914630        4.5331325625       -1.1498562649
 H          3.9584375787        2.7478979002       -0.8646200017
 H          1.6450858825        4.6643039258       -0.1632145076
