  62
        -98.94416670
 C         -2.2528686052       -0.8798054078        0.3999944507
 C         -2.4290687031        0.0087453176       -0.6886128408
 C         -3.2733878776        1.1801927156       -0.4208248679
 C         -3.7851676771        1.3709382932        0.8086948787
 C         -4.6464952642        2.5269685547        1.2400852581
 C         -6.1356304435        2.3522861064        0.9113377062
 C         -6.4966757785        2.4899726995       -0.5682709328
 H         -7.5844352082        2.5641904659       -0.6260606648
 H         -6.0858819750        3.4227070089       -0.9559466547
 C         -6.0348543914        1.3175126324       -1.4449835888
 H         -5.7971739586        0.4600655128       -0.8110845754
 H         -6.8511804722        1.0117923738       -2.1031796942
 C         -4.8287116792        1.6259276596       -2.3321823049
 H         -5.0971930087        2.3924613523       -3.0623932458
 H         -4.5641461016        0.7173971107       -2.8789025126
 C         -3.5853940627        2.0957483622       -1.5658086695
 H         -2.7321891694        2.0740217879       -2.2482087729
 H         -3.7251431943        3.1166853390       -1.2111535283
 H         -6.4615984696        1.3757511085        1.2769018562
 H         -6.6831337203        3.1153384636        1.4694104529
 H         -4.5405533240        2.6060343210        2.3243335430
 H         -4.2782050440        3.4479826111        0.7871737985
 O         -3.5506167087        0.5164293554        1.8415426978
 C         -2.7964438053       -0.6324138752        1.6593289347
 O         -2.6730914701       -1.3345118762        2.6850774550
 H          0.1044472512       -0.2061940851        1.2255048576
 C          0.6301715218       -0.7475641570        0.4472550588
 C         -0.0178753538       -1.7895043726       -0.2047421749
 C          0.6755349906       -2.4867880517       -1.1852554475
 C          1.9720492672       -2.1305915086       -1.5145043327
 C          2.6042286059       -1.0788665367       -0.8779521091
 C          1.9257744399       -0.3834754682        0.1146502516
 N          2.5549499942        0.6951913751        0.7615259329
 S          4.0865126277        0.4491419181        1.4046619808
 O          4.2776704846       -0.9260129326        1.8045635649
 O          4.2239231032        1.4456404379        2.4446321744
 C          5.1853468921        0.8549028426        0.0639568794
 C          5.0520959604        2.0925838435       -0.5343379282
 C          5.9049960115        2.4281174451       -1.5736067109
 C          6.8730633561        1.5271340039       -1.9920715649
 C          6.9962672626        0.2899731719       -1.3784699531
 C          6.1454873667       -0.0525474377       -0.3388672003
 H          6.1993039864       -1.0050507544        0.1637830167
 H          7.7494075100       -0.4088175821       -1.7053718527
 H          7.5351776793        1.7912108145       -2.8014840256
 H          5.8115515328        3.3889759039       -2.0536310839
 H          4.2884224781        2.7637948434       -0.1780430816
 H          1.9626587411        1.1678296391        1.4288595761
 H          3.6103911349       -0.7936362813       -1.1378927077
 H          2.4961669798       -2.6776491777       -2.2831550514
 H          0.1995095444       -3.3079910867       -1.6952464591
 C         -1.4252733989       -2.1382576014        0.2179014804
 H         -1.3707098720       -2.6139938655        1.2088552983
 C         -2.1250074526       -3.0824821337       -0.7384416698
 C         -1.9727812105       -4.5654012624       -0.5884800473
 C         -3.2692414525       -3.9050908351       -0.2300102010
 H         -4.1230514348       -4.0562591610       -0.8733379399
 H         -3.5233616577       -3.8060279890        0.8157703365
 H         -1.3498050069       -4.9260095668        0.2162154139
 H         -1.9398045555       -5.1736331470       -1.4798154018
 H         -2.2088410150       -2.6722304304       -1.7381896356
 O         -1.9086413937       -0.1625057650       -1.8204334298
