  62
        -98.94868220
 C         -1.4483199944       -0.9626917765        0.9104160849
 C         -2.4287088375       -0.4021369067        0.0575630417
 C         -2.7446247656        1.0126161216        0.2922043688
 C         -2.0519840610        1.7111305072        1.2087407124
 C         -2.2399995502        3.1655459698        1.5457968092
 C         -1.5274898445        4.1219797501        0.5795198230
 C         -2.1927256452        4.2802058270       -0.7883029755
 H         -3.2559446157        4.4858619283       -0.6563120359
 H         -1.7459725968        5.1575948922       -1.2607050592
 C         -2.0074266522        3.0764812452       -1.7227140639
 H         -1.1691032457        2.4670671117       -1.3769309389
 H         -1.7416030277        3.4321267722       -2.7216918556
 C         -3.2428387979        2.1892688081       -1.8759753819
 H         -2.9717132130        1.3371566281       -2.5046407770
 H         -4.0338206482        2.7470281628       -2.3841602231
 C         -3.8054581221        1.6447907426       -0.5578920373
 H         -4.3050743585        2.4416243993       -0.0064801120
 H         -4.5395755854        0.8710083505       -0.7979147688
 H         -1.4891770239        5.1033657752        1.0588183471
 H         -0.4998073791        3.7781762031        0.4354684664
 H         -3.3041577621        3.4026131732        1.5747267658
 H         -1.8246790232        3.3100346889        2.5457005730
 O         -1.0794495863        1.1492760599        1.9741711697
 C         -0.7523379374       -0.1900117443        1.8403341173
 O          0.1608211269       -0.5724983526        2.6009781801
 O         -3.0250533353       -1.0435421208       -0.8472645192
 C         -0.9917409024       -2.4030535704        0.7307023882
 C         -0.2477571079       -2.4688082212       -0.5819212257
 C         -0.5717737897       -3.3164642778       -1.6314776507
 C          0.1197254152       -3.2342808801       -2.8292560899
 C          1.1214650493       -2.2986074054       -3.0116493909
 C          1.4613369625       -1.4548369650       -1.9590842744
 C          0.8010050752       -1.5723294972       -0.7494872553
 H          1.0730101097       -0.9225291671        0.0693903917
 N          2.4669576557       -0.4852389828       -2.0865310770
 S          2.3044583175        0.9714238250       -1.2734188518
 O          0.9236862812        1.3739505411       -1.1461505758
 O          3.1590175578        1.8838892921       -2.0076047823
 C          3.0318496747        0.6836248053        0.3238517953
 C          2.4828604147        1.2961432072        1.4315730206
 C          3.0776567357        1.1058944370        2.6682546295
 C          4.2084146170        0.3122148399        2.7731913372
 C          4.7518908921       -0.2923487003        1.6495487062
 C          4.1623567911       -0.1047573308        0.4103097480
 H          4.5532635273       -0.5610267141       -0.4838992290
 H          5.6304811953       -0.9111699092        1.7369644987
 H          4.6657275373        0.1620318019        3.7384814248
 H          2.6452640372        1.5674658653        3.5412141142
 H          1.5893772878        1.8897904118        1.3146265281
 H          2.8338593633       -0.3620539494       -3.0188970452
 H          1.6331097101       -2.2144753671       -3.9583278233
 H         -0.1426324277       -3.8946644336       -3.6419857091
 H         -1.3739171105       -4.0272740851       -1.5202844848
 H         -0.2717606367       -2.5950887959        1.5393400809
 C         -2.1371874605       -3.3825405177        0.8481140255
 C         -1.8609319536       -4.8082622885        1.2177588868
 C         -2.5203278505       -3.8927201298        2.2036682857
 H         -3.5678500095       -4.0355433096        2.4223838482
 H         -1.9418909639       -3.5461823390        3.0478129201
 H         -2.4571954030       -5.5841251597        0.7620498713
 H         -0.8335028645       -5.0877400413        1.3954029695
 H         -2.9376251014       -3.1797127745        0.1471954908
