  62
        -98.93738394
 C          1.8137587076        0.9135275208       -0.2057738398
 C          2.4337886016        0.2687854248        0.8896888612
 C          3.5414351134       -0.6385228425        0.5622542544
 C          3.8747487388       -0.8418249453       -0.7251469571
 C          4.9425242384       -1.7700391346       -1.2411162529
 C          6.3938473536       -1.4134761178       -0.8650675955
 C          6.9135258399       -2.1206412445        0.3928499781
 H          6.3434220868       -3.0388453875        0.5401419614
 H          7.9499437551       -2.4199450932        0.2240205330
 C          6.8924903799       -1.2930456536        1.6816613102
 H          7.7343976522       -0.5970807010        1.6720539387
 H          7.0415689539       -1.9769144728        2.5201134618
 C          5.6254367414       -0.4743907204        1.9295846408
 H          5.6563558183       -0.1009232677        2.9550904734
 H          5.6236494048        0.4048350735        1.2809326113
 C          4.3084986582       -1.2419244630        1.7028456071
 H          4.5043035903       -2.2974300629        1.5193057810
 H          3.6720894279       -1.1582551829        2.5862488146
 H          7.0202830466       -1.7130399609       -1.7067452330
 H          6.4877370901       -0.3327628890       -0.7618915526
 H          4.8412511337       -1.7523115563       -2.3282217219
 H          4.7195837156       -2.7846373901       -0.9027185199
 O          3.2228881087       -0.2335247947       -1.7537737286
 C          2.1890276074        0.6633224351       -1.5258747358
 O          1.6958512200        1.1515463313       -2.5593054271
 O          2.0694196498        0.4329958017        2.0859168824
 C          0.6799750489        1.8867392877        0.0600866591
 C         -0.5951964259        1.3910720759       -0.5766333274
 C         -1.4405549438        2.1967962976       -1.3273179761
 C         -2.5956837925        1.6745328895       -1.8848091694
 C         -2.9384258625        0.3486700310       -1.6986365045
 C         -2.1101357241       -0.4611580952       -0.9307498597
 C         -0.9557479532        0.0642562857       -0.3720651345
 H         -0.3109224475       -0.5702816041        0.2235523021
 N         -2.4573153898       -1.8055030017       -0.7168867670
 S         -4.0487401001       -2.1560618049       -0.3370422241
 O         -3.9929895050       -3.3793344005        0.4324831431
 O         -4.8358068527       -2.2093494388       -1.5438254949
 C         -4.5990033912       -0.7977664532        0.6809945574
 C         -3.9216385693       -0.5503627881        1.8586951621
 C         -4.3134386642        0.5208193761        2.6447554207
 C         -5.3708251329        1.3224041221        2.2419598126
 C         -6.0445422239        1.0573052627        1.0600920895
 C         -5.6553833179       -0.0115619138        0.2686191203
 H         -6.1487283700       -0.2515787081       -0.6590858421
 H         -6.8676447765        1.6808186241        0.7506490115
 H         -5.6703337418        2.1577898381        2.8548420084
 H         -3.7896322185        0.7277809716        3.5642541515
 H         -3.1054898653       -1.1935682099        2.1473239467
 H         -1.8162584675       -2.3059537775       -0.1197161496
 H         -3.8241959490       -0.0760497097       -2.1422368644
 H         -3.2364715752        2.3094368923       -2.4771067201
 H         -1.1908105009        3.2325684497       -1.4863406607
 H          0.5395702372        1.8765083055        1.1514490873
 C          1.0711665931        3.2857058493       -0.3666919273
 C          0.4947279942        4.4785545229        0.3339259268
 C          1.9299448098        4.1053616472        0.5478109598
 H          2.6980548697        4.7276162036        0.1135241108
 H          2.2105323929        3.6635478114        1.4929595867
 H          0.2783293385        5.3626557233       -0.2464595904
 H         -0.2002036558        4.2972183269        1.1395793955
 H          1.2649867936        3.3568435948       -1.4309929027
