  62
        -98.93367051
 C          2.2312197615        0.9107777729        0.1682673381
 C          2.4704424942       -0.2486387231        0.9390059091
 C          3.2110105558       -1.3461358390        0.2873809777
 C          3.5741118672       -1.2031397322       -1.0011206033
 C          4.3610417262       -2.1590787311       -1.8575717979
 C          5.8632592607       -2.1469558404       -1.5302067749
 C          6.1974781465       -2.1434228822       -0.0407199522
 H          7.2794323660       -2.0203484586        0.0561152012
 H          5.7303635243       -1.2760123077        0.4292818807
 C          5.8020120634       -3.4076501661        0.7185799560
 H          6.3063371420       -4.2667568695        0.2705732419
 H          6.1733731051       -3.3011735287        1.7410894865
 C          4.3030266954       -3.7064523822        0.7865736677
 H          4.1603752721       -4.4813443725        1.5455265411
 H          3.9436389415       -4.1229345789       -0.1505017104
 C          3.4349856405       -2.5239531578        1.2055923867
 H          2.4344688726       -2.8980850762        1.4548251674
 H          3.8257849160       -2.1063206732        2.1405520421
 H          6.3274176196       -3.0112351624       -2.0081916314
 H          6.2964333544       -1.2451260968       -1.9696326968
 H          3.9529719673       -3.1616385064       -1.7706238308
 H          4.2282855117       -1.8343294992       -2.8918792982
 O          3.2840960994       -0.0806628027       -1.7193065479
 C          2.6144445092        0.9968513381       -1.1698173616
 O          2.4265018379        1.9428708615       -1.9571649667
 H         -0.4093401940        0.2541983436        0.5822133515
 C         -0.7144941961        1.1776851430        0.1050284387
 C          0.1589770188        2.2593822786        0.1201957231
 C         -0.2435861242        3.4437007751       -0.4803335019
 C         -1.4812777120        3.5292617035       -1.0956985118
 C         -2.3402228089        2.4468717519       -1.1227865206
 C         -1.9525895122        1.2594860735       -0.5135038735
 N         -2.8111822032        0.1415804714       -0.5430260845
 S         -4.4300190108        0.4131580696       -0.1362367003
 O         -5.0953167080        0.9982017922       -1.2727587990
 O         -4.5130911252        1.1626641227        1.0980058794
 C         -5.0081012794       -1.2542343710        0.1069434704
 C         -5.3721553552       -1.9982737440       -0.9992567678
 C         -5.8024236056       -3.3027097637       -0.8161480934
 C         -5.8607332026       -3.8382317052        0.4620815735
 C         -5.4934844042       -3.0785327746        1.5625966811
 C         -5.0608244299       -1.7735176916        1.3864692718
 H         -4.7745639462       -1.1438801582        2.2138289273
 H         -5.5428443196       -3.4963161412        2.5553214143
 H         -6.1976978394       -4.8531741170        0.6023075944
 H         -6.0913510328       -3.8959280616       -1.6686802231
 H         -5.3195905080       -1.5372231898       -1.9716572059
 H         -2.4394373963       -0.6247835299        0.0025341123
 H         -3.3065647203        2.5067491418       -1.5964735480
 H         -1.7810655077        4.4547225836       -1.5641611743
 H          0.4113899760        4.2990370293       -0.4741774902
 C          1.4923945963        2.0753415161        0.8032347738
 H          1.2984437385        1.7652871949        1.8408704649
 C          2.3535792758        3.3193537645        0.8204861201
 C          2.0931744136        4.3945020967        1.8315304877
 C          3.3075567743        3.5258263303        1.9572618141
 H          4.2751408168        3.9559125671        1.7464652953
 H          3.3232151165        2.7770137564        2.7358181501
 H          2.2279044342        5.4240223935        1.5364204501
 H          1.2828497104        4.2386125539        2.5276714920
 H          2.6846947593        3.6142466485       -0.1685707373
 O          2.0828647093       -0.3704660460        2.1341559119
