  62
        -98.93963025
 C         -2.6261204358       -1.2522936937        0.0971696761
 C         -2.7748576971       -0.2696782338       -0.9110624389
 C         -4.1335194584        0.2593025120       -1.0846177389
 C         -5.1405019783       -0.2187991169       -0.3311387668
 C         -6.5822435468        0.2051516424       -0.4077427567
 C         -6.9047568915        1.4661589246        0.4056318574
 C         -6.3685449064        2.7730367693       -0.1801165275
 H         -6.6760181910        2.8557757339       -1.2229806622
 H         -6.8466543367        3.5884855285        0.3662494885
 C         -4.8455056048        2.9362520335       -0.0759990672
 H         -4.4519126728        2.2325099101        0.6613045544
 H         -4.6099610482        3.9399165291        0.2852724497
 C         -4.0945185388        2.7422028776       -1.3934626765
 H         -3.0239255972        2.8394873474       -1.1941641863
 H         -4.3795532192        3.5279573542       -2.0966610044
 C         -4.3299945606        1.3803082221       -2.0597495693
 H         -5.3291211195        1.3404332819       -2.4929349932
 H         -3.5945846166        1.2583940389       -2.8586202329
 H         -7.9925851475        1.5419880014        0.4716105209
 H         -6.5188921639        1.3362003572        1.4194652951
 H         -6.8640686970        0.3604292411       -1.4494239364
 H         -7.1712991309       -0.6225882263       -0.0069890213
 O         -4.9594048016       -1.1876574449        0.6062659884
 C         -3.6999069468       -1.7059812084        0.8618818791
 O         -3.6677244107       -2.5535559715        1.7778000561
 O         -1.8279244687        0.1424878815       -1.6296536290
 C         -1.2549647484       -1.8367209942        0.3825123063
 C         -0.2866859358       -0.7302852717        0.7269878345
 C         -0.6621336754        0.2179751854        1.6751585696
 C          0.1905939887        1.2471944580        2.0234024068
 C          1.4394558201        1.3546763071        1.4367575565
 C          1.8308103221        0.4069529951        0.5021443164
 C          0.9736048077       -0.6333638898        0.1600587923
 H          1.2932246489       -1.3620911529       -0.5685672576
 N          3.0918871545        0.5131247206       -0.1098629929
 S          4.4052390168        0.9333918548        0.8646492170
 O          4.3863898759        0.1559278846        2.0837829868
 O          4.4147455192        2.3650137014        1.0322720338
 C          5.7661187500        0.4352282779       -0.1722233130
 C          6.3322237175       -0.8122979211        0.0105228800
 C          7.3726757438       -1.2037682935       -0.8172281089
 C          7.8243438755       -0.3471833726       -1.8099824594
 C          7.2456697036        0.9017236469       -1.9812255606
 C          6.2056089935        1.2999855602       -1.1565343608
 H          5.7314122469        2.2632541011       -1.2471656846
 H          7.6014923185        1.5652890534       -2.7527509026
 H          8.6344876107       -0.6540415587       -2.4524810670
 H          7.8264403698       -2.1727584241       -0.6848699903
 H          5.9553127142       -1.4414951034        0.8009352856
 H          3.3043732495       -0.2864720828       -0.6905709138
 H          2.1144269699        2.1541374110        1.6969663377
 H         -0.1187433273        1.9767088827        2.7574228857
 H         -1.6387573295        0.1380960219        2.1344587959
 H         -1.3732456612       -2.4730050418        1.2720807657
 C         -0.8094573799       -2.7012151049       -0.7787403740
 C          0.1127957871       -3.8600557301       -0.5496362025
 C         -1.3300088115       -4.1026758770       -0.8738205347
 H         -1.5827087606       -4.4941807931       -1.8477150400
 H         -1.9854365045       -4.4408667855       -0.0842783771
 H          0.8496805185       -4.0916059073       -1.3041353359
 H          0.4420919283       -4.0446079595        0.4619202162
 H         -0.7131604982       -2.1397142502       -1.7010419136
