  62
        -98.94388566
 C         -1.6683602050       -1.4410101522        0.5408006019
 C         -2.6232635132       -1.0390014411       -0.4252634226
 C         -3.4704357929        0.1046093219       -0.0473594834
 C         -3.2418558618        0.7504447754        1.1096950842
 C         -3.9978866842        1.9561722052        1.5868351056
 C         -3.3464590485        3.2622909616        1.1113538239
 C         -3.0171949570        3.2811329270       -0.3809338822
 H         -2.5899974193        4.2609224503       -0.6053999419
 H         -2.2497887927        2.5316922884       -0.5864804373
 C         -4.2196421856        3.0304984055       -1.3010361646
 H         -5.1486254610        3.1924912261       -0.7529817114
 H         -4.1948076713        3.7559292330       -2.1168282013
 C         -4.2434683807        1.6411901704       -1.9399923817
 H         -3.2786748497        1.4357133955       -2.4101010366
 H         -4.9989135819        1.6428065334       -2.7302691954
 C         -4.5758667300        0.4805320891       -0.9942378942
 H         -5.4909438049        0.7067878458       -0.4426822527
 H         -4.7566345988       -0.4052781144       -1.6100128632
 H         -4.0205464582        4.0875308065        1.3480596041
 H         -2.4202124037        3.4134580574        1.6706055025
 H         -5.0223386842        1.8983227403        1.2234543282
 H         -4.0101484500        1.9428851810        2.6782050285
 O         -2.2519397182        0.3932663668        1.9684896251
 C         -1.4586569716       -0.7111874979        1.7147523198
 O         -0.6067838623       -0.9411958027        2.5974275753
 H          1.6407820794       -2.0547330628        1.4171722506
 C          1.6333818172       -1.8611681210        0.3529494419
 C          0.4861285502       -2.1349021896       -0.3774983301
 C          0.4756324163       -1.8464840993       -1.7379713038
 C          1.5933884826       -1.3021872718       -2.3450910507
 C          2.7335164988       -1.0201676403       -1.6116135081
 C          2.7469183843       -1.2958492884       -0.2510529825
 N          3.8813670168       -0.9668442248        0.5154959028
 S          4.4533960472        0.5973046497        0.3419835808
 O          5.3367938479        0.6592448136       -0.7959172755
 O          5.0501187789        0.9338655742        1.6156883606
 C          3.0169640289        1.6130108582        0.0319547222
 C          1.9373401943        1.5282821314        0.8891044845
 C          0.8222106145        2.3115851968        0.6404698718
 C          0.8082441742        3.1710828191       -0.4470662984
 C          1.9014918710        3.2479755432       -1.2956192835
 C          3.0151359128        2.4587214972       -1.0587519222
 H          3.8823765151        2.4779948125       -1.6985861176
 H          1.8862719028        3.9162916905       -2.1413477799
 H         -0.0606884707        3.7822027302       -0.6324425713
 H         -0.0313106346        2.2345145113        1.2965910656
 H          1.9591877255        0.8576235974        1.7338016231
 H          3.7822185478       -1.1974086537        1.4940477900
 H          3.6065639237       -0.5809907065       -2.0671706731
 H          1.5745613003       -1.0830523528       -3.4017298901
 H         -0.4240499294       -2.0237373689       -2.3063865695
 C         -0.7385830232       -2.6321882629        0.3499878041
 H         -0.4251987629       -2.9295829169        1.3601239905
 C         -1.3804483778       -3.8292101591       -0.3165803944
 C         -0.7170210236       -5.1657040950       -0.1807214511
 C         -2.0041587099       -4.8911830402        0.5360422255
 H         -2.9051864079       -5.3701382059        0.1835188915
 H         -1.9730011538       -4.7585221566        1.6080441623
 H         -0.7314999374       -5.8359780877       -1.0262257633
 H          0.1884721585       -5.2182575281        0.4053348872
 H         -1.8687474931       -3.6018913941       -1.2536297704
 O         -2.7873272781       -1.5917369158       -1.5430852948
