  62
        -98.93984000
 C          1.5250332045        1.4844407120        0.2906627825
 C          1.5588930543        0.4574125508       -0.6790655707
 C          2.4677606568       -0.6803031331       -0.4179511764
 C          3.1700453414       -0.7047919746        0.7300323805
 C          4.1531568949       -1.7391687223        1.2118798063
 C          5.5124689124       -1.6422551014        0.5038422845
 C          5.4312267958       -1.4992989030       -1.0131435194
 H          6.4489605565       -1.3654916198       -1.3890838137
 H          4.8744842545       -0.5932270312       -1.2583453043
 C          4.8150759779       -2.6897470746       -1.7449801382
 H          5.3747130294       -3.5936308623       -1.4949607095
 H          4.9395740277       -2.5098669439       -2.8159385090
 C          3.3284657904       -2.9446339845       -1.4800394595
 H          3.1765782141       -3.4670693026       -0.5391547642
 H          2.9687944868       -3.6152948157       -2.2658541754
 C          2.4528200601       -1.6969426376       -1.5355768372
 H          1.4071251457       -2.0102898682       -1.6404925964
 H          2.6763609404       -1.1436714134       -2.4552812322
 H          6.0966202464       -2.5284578634        0.7578178771
 H          6.0384511395       -0.7679516934        0.8951366847
 H          4.3031614444       -1.5521069855        2.2774853172
 H          3.7362610827       -2.7361899191        1.1056065800
 O          3.0868335594        0.2992802782        1.6488071862
 C          2.2865964564        1.4047755653        1.4605360046
 O          2.3322773861        2.2382003330        2.3862075581
 H         -1.1625489230        1.6422047093       -1.6017055628
 C         -1.5592175545        1.6993847508       -0.6007052270
 C         -0.7918719822        2.2525963398        0.4127836599
 C         -1.3139446706        2.2823888863        1.7024071430
 C         -2.5716981638        1.7711920345        1.9676335492
 C         -3.3224847032        1.1916355816        0.9593472585
 C         -2.8008442278        1.1448986868       -0.3264204781
 N         -3.5158080878        0.4793783680       -1.3406572578
 S         -4.0447744982       -1.0617192585       -0.9507913277
 O         -3.9971590629       -1.8159234629       -2.1843566983
 O         -5.3439745186       -0.9728492638       -0.3296654108
 C         -2.8746993847       -1.7155379011        0.2335806812
 C         -3.3543430907       -2.2462122637        1.4142589396
 C         -2.4570191403       -2.7537890714        2.3397284983
 C         -1.0974998545       -2.7146305851        2.0734263991
 C         -0.6307130244       -2.1784593821        0.8835254790
 C         -1.5235269512       -1.6778968914       -0.0506293118
 H         -1.1698729912       -1.2506458830       -0.9763923290
 H          0.4282676969       -2.1331722430        0.6809195237
 H         -0.3944191596       -3.0996025759        2.7951764033
 H         -2.8185296479       -3.1712100954        3.2656022874
 H         -4.4185893687       -2.2437233851        1.5856453325
 H         -3.0266327602        0.4692257098       -2.2248825655
 H         -4.2935460511        0.7632295510        1.1498154381
 H         -2.9659312197        1.8090295966        2.9715455463
 H         -0.7118781713        2.6935904719        2.5002051904
 C          0.6250269369        2.7054542553        0.1596617369
 H          0.9180266797        3.3805744327        0.9738936762
 C          0.8060300222        3.4286274607       -1.1585461133
 C          0.2525689061        4.8127684031       -1.3091216197
 C          1.7339963525        4.6024560834       -1.2275451543
 H          2.3252642005        4.7396484105       -2.1206199511
 H          2.2423515029        4.8934016889       -0.3197532206
 H         -0.2457708109        5.2451216987       -0.4545881866
 H         -0.1757744071        5.0975152195       -2.2579344309
 H          0.7762394759        2.7765159271       -2.0216086122
 O          0.8749012494        0.4607523775       -1.7379348388
