  62
        -98.94947939
 C         -1.0353799692       -1.6830938536       -0.2752615767
 C         -2.3142397097       -1.5118977323        0.3019059024
 C         -3.0895178766       -0.3675499285       -0.1888833815
 C         -2.5632983319        0.4409412665       -1.1264855685
 C         -3.2222857492        1.6592847061       -1.7147800469
 C         -3.0743630831        2.9197251710       -0.8507009034
 C         -3.9489963388        2.9560080503        0.4030011634
 H         -3.9342054793        3.9833482773        0.7728354811
 H         -4.9801239402        2.7184128328        0.1378064119
 C         -3.4733731355        2.0260795890        1.5279667648
 H         -2.4268770363        1.7564726797        1.3620786610
 H         -3.5070610121        2.5627682737        2.4795685524
 C         -4.3067287773        0.7554807627        1.6987909863
 H         -5.3128266532        1.0216544987        2.0324863534
 H         -3.8429656458        0.1470545958        2.4795987860
 C         -4.4268414253       -0.1049106436        0.4349687400
 H         -4.8535095193       -1.0700792273        0.7205808230
 H         -5.0934666172        0.3733983520       -0.2826035792
 H         -3.3325395800        3.7782976010       -1.4755174643
 H         -2.0283114343        3.0258389407       -0.5506888212
 H         -4.2802700578        1.4597521478       -1.8884814020
 H         -2.7403503887        1.8404351505       -2.6779880592
 O         -1.3405943251        0.2254509235       -1.6791332326
 C         -0.5369954111       -0.8219646678       -1.2532438790
 O          0.5718954340       -0.8827692542       -1.8165686108
 O         -2.7845306986       -2.2779444166        1.1877095370
 C         -0.1361107512       -2.7927792938        0.2313064682
 C          1.1756619298       -2.2336079326        0.7285877701
 C          2.3610253397       -2.9594779361        0.6922622643
 C          3.5391551226       -2.4053071422        1.1614044511
 C          3.5702301695       -1.1113314688        1.6492957363
 C          2.3906459724       -0.3779715150        1.6894979311
 C          1.2061463180       -0.9520371199        1.2602020763
 H          0.2992882509       -0.3692606133        1.3182544852
 N          2.3638949630        0.9500885018        2.1550900215
 S          1.5701230408        2.1026634719        1.2411556749
 O          2.0639427111        3.3636991217        1.7597361276
 O          0.1425431571        1.9198393459        1.3195877088
 C          2.1282663145        1.9202448020       -0.4434276375
 C          3.4516439677        1.6207264661       -0.6980804848
 C          3.8761311134        1.5261240881       -2.0128431238
 C          2.9791654401        1.7416980380       -3.0470555518
 C          1.6579677831        2.0549929481       -2.7756506504
 C          1.2280147133        2.1449491272       -1.4623819035
 H          0.2029889917        2.3670321193       -1.2125742001
 H          0.9555656029        2.2163886470       -3.5775809935
 H          3.3101418690        1.6618908324       -4.0706067626
 H          4.9040616573        1.2804849057       -2.2264143641
 H          4.1357239463        1.4617032857        0.1191861933
 H          3.2533232439        1.3039639756        2.4773428399
 H          4.4936333115       -0.6738344761        1.9975849701
 H          4.4500230141       -2.9833324702        1.1310703662
 H          2.3608955618       -3.9607514954        0.2931234554
 H         -0.6695065258       -3.2390237367        1.0849643224
 C          0.0484931993       -3.8558929955       -0.8344678632
 C          0.1560360494       -5.3036269166       -0.4610221112
 C         -1.0863265317       -4.7910907203       -1.1230353024
 H         -1.2805454267       -5.0668746872       -2.1485787173
 H         -1.9788586983       -4.6816929550       -0.5241529611
 H          0.8156019242       -5.9365288550       -1.0355327776
 H          0.0988565021       -5.5576384912        0.5867914745
 H          0.6290646482       -3.4976762515       -1.6772170575
