  62
        -98.94075196
 C          2.0072208165        1.3308447067        0.3676218222
 C          2.4951677475        0.6301825913       -0.7634209953
 C          3.7098123338       -0.1726838608       -0.5439849942
 C          4.2683037740       -0.2140910116        0.6784590517
 C          5.4730809787       -1.0293023216        1.0473222954
 C          5.0676579485       -2.4185725305        1.5592249678
 C          4.0676081983       -3.1416545449        0.6566640897
 H          3.8779683179       -4.1216556230        1.1001881268
 H          3.1196715867       -2.5980979199        0.6644507095
 C          4.5352073585       -3.3193144776       -0.7946750943
 H          5.6162232752       -3.1874379372       -0.8541081749
 H          4.3155795122       -4.3415297370       -1.1100042181
 C          3.8549532741       -2.3877552109       -1.7998539357
 H          4.0918966256       -2.7435472060       -2.8061026750
 H          2.7697007913       -2.4476688563       -1.6807917832
 C          4.2670878474       -0.9119439640       -1.7277052622
 H          3.8611702513       -0.4124534033       -2.6123156540
 H          5.3557276196       -0.8318120559       -1.7561656755
 H          5.9691564075       -3.0248030176        1.6644537561
 H          4.6169299066       -2.3057803931        2.5480660349
 H          6.0149079230       -0.5052444630        1.8365805245
 H          6.1203571485       -1.1254468847        0.1778840746
 O          3.7564286105        0.4501138998        1.7462399516
 C          2.6080652664        1.2157746531        1.6235406091
 O          2.2208366085        1.7302228185        2.6921182505
 O          1.9578558076        0.6633759758       -1.8994410619
 C          0.7522337179        2.1846740962        0.2955614981
 C         -0.3320504648        1.4395676814       -0.4442978117
 C         -0.9668747635        1.9210057653       -1.5806700220
 C         -1.9498752593        1.1716888207       -2.2044985012
 C         -2.3252075521       -0.0628283520       -1.7093678679
 C         -1.7040815921       -0.5489671899       -0.5652774834
 C         -0.7260458396        0.2061000894        0.0621386222
 H         -0.2386551000       -0.1762600950        0.9515194782
 N         -2.0867219420       -1.7978010209       -0.0462122134
 S         -3.7224004618       -2.1363858997        0.0526176841
 O         -3.8489802983       -3.0733745307        1.1471862629
 O         -4.2025537672       -2.5967573578       -1.2263641644
 C         -4.4983415622       -0.5831684755        0.4643152845
 C         -5.4192193983       -0.0218688038       -0.3964186250
 C         -5.9836386356        1.2008785832       -0.0696372445
 C         -5.6156832089        1.8394831656        1.1041682195
 C         -4.6916286525        1.2607268927        1.9609544777
 C         -4.1260781431        0.0375919246        1.6403373882
 H         -3.4087911627       -0.4407366294        2.2882899267
 H         -4.4064344822        1.7583643545        2.8740430189
 H         -6.0511200495        2.7936530914        1.3555137050
 H         -6.7041356830        1.6522080919       -0.7324481854
 H         -5.6739966633       -0.5513153406       -1.2999788994
 H         -1.6051022737       -2.0575616352        0.8014290588
 H         -3.0740332971       -0.6659157587       -2.1967197844
 H         -2.4255455620        1.5520089872       -3.0954656973
 H         -0.6727499613        2.8700128377       -1.9968557759
 H          0.4259270719        2.2929252206        1.3434058407
 C          0.9840344612        3.5941213839       -0.2283688061
 C          2.3108080627        4.2711371351       -0.0606622897
 C          1.8378378285        3.8774380970       -1.4261740304
 H          1.5262440938        4.6594150348       -2.1032928247
 H          2.3079381861        3.0391161212       -1.9147010061
 H          2.3221113989        5.3187048626        0.2006028186
 H          3.1112048525        3.7015678715        0.3894627990
 H          0.1084390064        4.2219067473       -0.0952160513
