  62
        -98.93791017
 C         -1.0962886651       -1.6091387484        0.4782482448
 C         -1.6899508140       -0.9322347218       -0.6122794707
 C         -2.7081402372        0.0872884293       -0.2789804914
 C         -2.9533514093        0.3690354040        1.0125028220
 C         -3.9487367886        1.3433338936        1.5889527125
 C         -5.3701639503        1.2596993443        1.0090308752
 C         -5.7565446707        2.4832442416        0.1777376271
 H         -6.8458510759        2.5602042887        0.1537843022
 H         -5.3783660676        3.3783342963        0.6760975042
 C         -5.2625180981        2.4591439188       -1.2673919283
 H         -5.4882996281        3.4328963378       -1.7084320926
 H         -5.8272096782        1.7110247456       -1.8280483527
 C         -3.7690981110        2.1747755385       -1.4487717297
 H         -3.1897019082        2.6923318476       -0.6859269369
 H         -3.4752605292        2.5913217640       -2.4149292527
 C         -3.4172975304        0.6800655010       -1.4668235628
 H         -4.3219825794        0.0920595758       -1.6518673490
 H         -2.7511164080        0.4704386338       -2.3097845190
 H         -5.4727082645        0.3531773137        0.4135825736
 H         -6.0699611465        1.1795836624        1.8423562125
 H         -3.9703361748        1.1318513925        2.6603071973
 H         -3.5632384512        2.3594210687        1.4786727809
 O         -2.2637272850       -0.2259762559        2.0296056050
 C         -1.3438807272       -1.2288513505        1.7967962530
 O         -0.8143189412       -1.6915022805        2.8290977054
 H          1.5751877753       -1.2837994984        1.6651914297
 C          1.9333278012       -1.3949226949        0.6491666536
 C          1.1892268702       -2.1565886231       -0.2447282064
 C          1.6458289912       -2.2853893004       -1.5487975112
 C          2.8181903056       -1.6618935657       -1.9435352000
 C          3.5548447934       -0.9028429547       -1.0528130162
 C          3.1050108702       -0.7711293989        0.2550474813
 N          3.8318519858        0.0337290415        1.1602940008
 S          3.9886801857        1.6341293318        0.6805482436
 O          5.0798845143        1.7435914326       -0.2540573906
 O          4.1227167805        2.3984600115        1.9004625663
 C          2.4466667556        1.9981820646       -0.1386885121
 C          2.4157983307        2.1729202797       -1.5067049596
 C          1.1932726891        2.3683969864       -2.1286671869
 C          0.0290609499        2.3776667941       -1.3774855244
 C          0.0775759478        2.2030935788       -0.0033637223
 C          1.2958707293        2.0075026404        0.6241713402
 H          1.3636534746        1.8669190579        1.6919746038
 H         -0.8298222679        2.1998924557        0.5801505836
 H         -0.9236899298        2.5148778882       -1.8623484612
 H          1.1492968554        2.5025350810       -3.1972976205
 H          3.3440431742        2.1518327095       -2.0537659133
 H          3.4618997672       -0.0046349405        2.0999394504
 H          4.4630039027       -0.4015272378       -1.3462917176
 H          3.1605216225       -1.7660870837       -2.9616126945
 H          1.0753682823       -2.8588600368       -2.2598955492
 C         -0.1059777251       -2.7435829158        0.2594850151
 H          0.0870461035       -3.1649695429        1.2560644418
 C         -0.6796615571       -3.8304927376       -0.6228281538
 C         -0.0488012560       -5.1893637102       -0.6161555551
 C         -1.3929783489       -4.9838274841        0.0135597282
 H         -2.2629625783       -5.3884524676       -0.4815128597
 H         -1.4605007330       -4.9979155001        1.0919859959
 H          0.7982017750       -5.3429541016        0.0355020719
 H          0.0047905120       -5.7387521048       -1.5434765807
 H         -1.0773157890       -3.4574708807       -1.5578774941
 O         -1.4073415437       -1.1684461450       -1.8139433358
