  62
        -98.94292631
 C         -1.8411647408       -1.3174963992       -0.0586112202
 C         -3.1751546509       -1.2027668190        0.4153494494
 C         -3.9778716106       -0.1155350789       -0.1540935709
 C         -3.4257072202        0.7194996310       -1.0522339208
 C         -4.1138190898        1.8722771611       -1.7316436711
 C         -4.1421224599        3.1628090111       -0.9010504711
 C         -5.1013501902        3.1507946313        0.2898774186
 H         -5.1860085402        4.1803737814        0.6432671985
 H         -6.0917100102        2.8402551915       -0.0447548317
 C         -4.6486635608        2.2643012313        1.4586213588
 H         -3.5849605108        2.0381938612        1.3542843391
 H         -4.7688012410        2.8096897614        2.3973804287
 C         -5.4215084710        0.9525784514        1.5955650286
 H         -6.4658429410        1.1647957316        1.8354246882
 H         -4.9938256813        0.3870034214        2.4273553387
 C         -5.3793153607        0.0622922014        0.3469338186
 H         -6.0118439104        0.4814437514       -0.4355854916
 H         -5.7645233810       -0.9242222286        0.6170432185
 H         -4.4394340795        3.9732171411       -1.5705902113
 H         -3.1301335199        3.3757871810       -0.5496329708
 H         -3.5592222794        2.0672951110       -2.6521416609
 H         -5.1325659597        1.5860937212       -1.9953249714
 O         -2.1409944400        0.5894109108       -1.4704524804
 C         -1.3139214704       -0.4225179693       -0.9916828300
 O         -0.1717850302       -0.3968695395       -1.4847049197
 O         -3.6728665013       -1.9777908588        1.2741705893
 C         -0.9881645311       -2.4220001493        0.5431975102
 C          0.3235518488       -1.8476743994        1.0099683206
 C          0.3804014685       -1.1414757294        2.2078618205
 C          1.5590104885       -0.5503295495        2.6239154309
 C          2.6990588787       -0.6301102798        1.8429470013
 C          2.6444423890       -1.3157515498        0.6366399513
 C          1.4698711290       -1.9397019496        0.2379552309
 H          1.4385115693       -2.4612562897       -0.7056593590
 N          3.7770173992       -1.3659067600       -0.1910133383
 S          4.7594300295       -0.0213913302       -0.3010107281
 O          5.3721066399       -0.1086231903       -1.6092510079
 O          5.6803054291       -0.0117646102        0.8110465522
 C          3.7210187897        1.4309627700       -0.2071537285
 C          4.2027879496        2.5225072400        0.4894672816
 C          3.4402471998        3.6773900001        0.5469797013
 C          2.2084522000        3.7216913402       -0.0879576391
 C          1.7388584100        2.6174997903       -0.7809373692
 C          2.4998070299        1.4606923702       -0.8498184289
 H          2.1189649199        0.5987529502       -1.3740805290
 H          0.7765852302        2.6337389004       -1.2684406795
 H          1.6104992601        4.6183458003       -0.0411519893
 H          3.8059692797        4.5356949600        1.0872919414
 H          5.1601180094        2.4404149598        0.9784915819
 H          3.5988528695       -1.7626452800       -1.1019897684
 H          3.6247929687       -0.1692235399        2.1485294816
 H          1.5909031882       -0.0132488395        3.5596025509
 H         -0.5154470717       -1.0545104192        2.8069991103
 H         -1.5553813815       -2.7510934491        1.4285903300
 C         -0.8171422010       -3.6488911193       -0.3403725297
 C         -1.9675521209       -4.1674621792       -1.1489841201
 C         -0.7705677105       -3.5860139294       -1.8365985897
 H         -0.1012578305       -4.2589322595       -2.3533778595
 H         -0.8655494203       -2.6208467194       -2.3086440198
 H         -2.1256842610       -5.2341655692       -1.1990651001
 H         -2.8802794208       -3.5896748691       -1.1393990604
 H         -0.1837615413       -4.3947022094        0.1310449705
