  62
        -98.94328647
 C         -0.9776343069       -1.7213081357       -0.2309968667
 C         -2.2634592073       -1.6262849558        0.3424759506
 C         -3.1130119895       -0.5146371160       -0.1219182509
 C         -2.6144990047        0.3496207617       -1.0233837678
 C         -3.2519056521        1.6088153269       -1.5446515564
 C         -2.8779953356        2.8108134026       -0.6574243963
 C         -3.8523963181        3.0906513964        0.4840959651
 H         -3.4378604957        3.9167418571        1.0667437289
 H         -4.8103665966        3.4196897409        0.0749188702
 C         -4.0888474758        1.9038094607        1.4202611643
 H         -3.1332782222        1.4164894900        1.6275799728
 H         -4.4640297030        2.2918309608        2.3695135890
 C         -5.0938298981        0.8847869691        0.8639560667
 H         -5.8580464899        0.6824197305        1.6176721567
 H         -5.6107081324        1.3200089878        0.0089468873
 C         -4.4945930052       -0.4712991751        0.4740410482
 H         -4.4297759758       -1.1051146274        1.3645958865
 H         -5.1801725911       -0.9760448396       -0.2161153927
 H         -1.8856800755        2.6336039818       -0.2317178791
 H         -2.8167745641        3.7058029860       -1.2807463717
 H         -2.8470073525        1.7702566782       -2.5458092183
 H         -4.3297591847        1.4981910872       -1.6190594548
 O         -1.3721662607        0.2116956624       -1.5642433654
 C         -0.5240104459       -0.8139588949       -1.1883477724
 O          0.5797097108       -0.8129190270       -1.7646049773
 O         -2.6835080356       -2.4316187831        1.2202655386
 C         -0.0285633828       -2.8011776141        0.2473610662
 C          1.2637615350       -2.2026094975        0.7503113896
 C          2.4660424705       -2.9012692672        0.7271089120
 C          3.6277879263       -2.3181451604        1.2015520209
 C          3.6263485016       -1.0201067769        1.6797137451
 C          2.4304708456       -0.3131096046        1.7048915691
 C          1.2617542685       -0.9173273770        1.2731365759
 H          0.3422175238       -0.3540435786        1.3222522707
 N          2.3704182762        1.0184274649        2.1569804599
 S          1.5590450883        2.1448610544        1.2250258470
 O          2.0224231714        3.4208362819        1.7356383932
 O          0.1347936393        1.9333893734        1.2977351303
 C          2.1354451247        1.9607093643       -0.4536491664
 C          3.4643248692        1.6713246515       -0.6912115110
 C          3.9065013366        1.5773028845       -2.0001484850
 C          3.0213104576        1.7843479992       -3.0461352007
 C          1.6944934091        2.0876905399       -2.7917865435
 C          1.2462462853        2.1760582180       -1.4843652942
 H          0.2161045539        2.3906232120       -1.2505370860
 H          1.0013096326        2.2430291631       -3.6028952666
 H          3.3660385606        1.7058614617       -4.0652618186
 H          4.9389982860        1.3393113933       -2.1998713750
 H          4.1396314926        1.5191014284        0.1345424745
 H          3.2492034850        1.3953580993        2.4824191232
 H          4.5370801603       -0.5596347203        2.0317398701
 H          4.5513335771       -2.8761754698        1.1828285686
 H          2.4912857175       -3.9048860234        0.3347178211
 H         -0.5374962200       -3.2898640769        1.0925727407
 C          0.1960519570       -3.8305169334       -0.8442432215
 C          0.3587407276       -5.2819754959       -0.5069135924
 C         -0.9022029012       -4.8008763133       -1.1572297235
 H         -1.0858205199       -5.0581932665       -2.1895064675
 H         -1.7981570325       -4.7403596567       -0.5565341433
 H          1.0422699281       -5.8744035032       -1.0963841288
 H          0.3105006454       -5.5643000914        0.5341044180
 H          0.7627425170       -3.4296988185       -1.6772426682
