  62
        -98.94642571
 C          1.2220603817        1.2272076214        0.0394724977
 C          1.6914962538        0.3906620447        1.0813632910
 C          2.4912689843       -0.7660919461        0.6664417232
 C          2.6847659478       -1.0055823170       -0.6431413631
 C          3.4818291627       -2.1406498241       -1.2273475481
 C          4.9931282294       -1.8761790743       -1.2827822377
 C          5.7158397133       -1.9239534419        0.0640467046
 H          5.4680739088       -2.8539993713        0.5766955597
 H          6.7865849492       -1.9459151193       -0.1484623146
 C          5.4216265725       -0.7314238047        0.9848096872
 H          4.9904288889        0.0837780081        0.3993064758
 H          6.3569547258       -0.3598052905        1.4094297174
 C          4.4883680885       -1.0478463991        2.1535020406
 H          4.9685428957       -1.7653676568        2.8227133692
 H          4.3183119785       -0.1259818545        2.7155806344
 C          3.1226138475       -1.6073281805        1.7344875697
 H          3.2290224956       -2.6379009839        1.3961967242
 H          2.4634166602       -1.5905051155        2.6060345106
 H          5.4325022265       -2.6371942428       -1.9318386084
 H          5.1608538137       -0.9036803726       -1.7511508413
 H          3.1258878368       -2.2799606601       -2.2500542325
 H          3.2939246083       -3.0554149820       -0.6645426733
 O          2.1416845132       -0.2285791917       -1.6150032648
 C          1.4010896075        0.9034489392       -1.3063920400
 O          0.9714162880        1.5133581676       -2.3016519722
 O          1.4536818529        0.6018964146        2.3018401649
 C          0.4305951287        2.4698343731        0.4171027420
 C         -1.0231049433        2.2019273960        0.1198730500
 C         -1.7151693378        2.7660215133       -0.9427609009
 C         -3.0303912887        2.4079883377       -1.1890367164
 C         -3.6806079940        1.4897622642       -0.3844838647
 C         -2.9956897687        0.9247039910        0.6836325475
 C         -1.6804002082        1.2811782853        0.9281445756
 H         -1.1421283719        0.8308059546        1.7524826531
 N         -3.6424375888       -0.0363788883        1.4956659435
 S         -4.0357777343       -1.4551618180        0.6941055629
 O         -5.1707822576       -1.2119165370       -0.1585318458
 O         -4.2149229736       -2.4520077305        1.7250538992
 C         -2.5963662735       -1.8237256720       -0.2930280490
 C         -2.5688149782       -1.4498100851       -1.6210108756
 C         -1.4209606147       -1.6878608565       -2.3591121002
 C         -0.3266764897       -2.2898208576       -1.7589313098
 C         -0.3661223283       -2.6509924745       -0.4211174989
 C         -1.5096624271       -2.4117374169        0.3225776023
 H         -1.5786364639       -2.6859987588        1.3633868938
 H          0.4912251269       -3.1093997714        0.0452806189
 H          0.5643442700       -2.4730154304       -2.3378639753
 H         -1.3778936814       -1.3967063466       -3.3962269511
 H         -3.4422406873       -0.9892442599       -2.0524754714
 H         -3.1102177385       -0.2629976695        2.3248764048
 H         -4.6987622382        1.1892158997       -0.5722306113
 H         -3.5555130403        2.8494451562       -2.0223758379
 H         -1.2193922164        3.4712567806       -1.5886944432
 H          0.5377152513        2.5601241455        1.5073423050
 C          0.9770292759        3.7229329785       -0.2300419698
 C          0.5891478642        5.0611133395        0.3220540130
 C          1.9841601681        4.5480066822        0.5114059785
 H          2.7845579987        5.0088404032       -0.0478128587
 H          2.2770926135        4.2155484156        1.4967603144
 H          0.4308366933        5.8773650035       -0.3659089560
 H         -0.0669702327        5.0752871646        1.1792846020
 H          1.1043065341        3.6317574120       -1.3014377233
