  62
        -98.94370192
 C          1.7987481215       -0.9131367944       -0.7844468577
 C          1.9919424735       -0.3746155370        0.5107470343
 C          3.3863746391       -0.3057582154        0.9657630698
 C          4.3724712919       -0.7724693563        0.1784230773
 C          5.8392681529       -0.7899427244        0.5137490765
 C          6.5628328158        0.5294497549        0.2111598143
 C          6.2384480999        1.6822361174        1.1622570067
 H          6.3799793973        1.3526625304        2.1919832557
 H          6.9684624490        2.4710074374        0.9696226800
 C          4.8275383071        2.2639681796        0.9950649621
 H          4.4160350615        1.9520636850        0.0322923823
 H          4.8827897753        3.3548165324        0.9794099286
 C          3.8458030188        1.8754924853        2.1007431860
 H          4.1777366842        2.3003031643        3.0506849113
 H          2.8708563589        2.3068274705        1.8593769082
 C          3.6623195163        0.3625521823        2.2785374970
 H          4.5427792101       -0.0711941079        2.7518941844
 H          2.7968515866        0.1958589731        2.9240977752
 H          6.3318493196        0.8271342734       -0.8143693449
 H          7.6360746351        0.3326580622        0.2656590275
 H          5.9724119918       -1.0467159655        1.5649170171
 H          6.2885676465       -1.5764387645       -0.0964198864
 O          4.1388761788       -1.3149925114       -1.0470343899
 C          2.8560851487       -1.3719755361       -1.5686501218
 O          2.7892642569       -1.8459984087       -2.7215911192
 H         -2.0989232005       -0.2043914261       -0.5001103290
 C         -1.5102076983        0.6114180956       -0.8824560022
 C         -0.2321238175        0.3810773125       -1.3643410725
 C          0.4934735955        1.4566538046       -1.8709728476
 C         -0.0417276752        2.7295285254       -1.8754308891
 C         -1.3149119056        2.9572701777       -1.3826293159
 C         -2.0516845433        1.8903638342       -0.8836464965
 N         -3.3262683572        2.0975070047       -0.3448787210
 S         -4.5082366511        0.9231418568       -0.3852734544
 O         -4.5127593562        0.2081085670       -1.6404568431
 O         -5.7275648999        1.6333849721       -0.0620304868
 C         -4.1069719393       -0.1836446565        0.9506049912
 C         -3.5871462827        0.3296693364        2.1218608126
 C         -3.2995274002       -0.5388913273        3.1624055872
 C         -3.5409177559       -1.8965458627        3.0186453146
 C         -4.0709564542       -2.3955341661        1.8389766520
 C         -4.3587486637       -1.5323597387        0.7936754855
 H         -4.7618652648       -1.8777539728       -0.1454001161
 H         -4.2575000426       -3.4521645201        1.7291884631
 H         -3.3121870883       -2.5701483376        3.8295143236
 H         -2.8824786857       -0.1548869170        4.0794258154
 H         -3.4025500956        1.3879608119        2.1999981817
 H         -3.6949960372        3.0324376954       -0.4286861475
 H         -1.7319969507        3.9527901547       -1.3794900552
 H          0.5355702505        3.5539636042       -2.2666551973
 H          1.4892306037        1.2795019814       -2.2554517374
 C          0.3977071522       -0.9906085484       -1.3628111986
 H          0.5132940859       -1.3150445360       -2.4076619858
 C         -0.4136306426       -2.0295496797       -0.6166569035
 C         -1.5263810307       -2.7584634157       -1.3058222376
 C         -0.2498075366       -3.4731011500       -0.9817219576
 H         -0.2566274170       -4.2088355985       -0.1918712284
 H          0.4291804386       -3.7054434758       -1.7894871748
 H         -1.7259186743       -2.5089804287       -2.3372453959
 H         -2.4097051996       -3.0038010106       -0.7361574774
 H         -0.5329539398       -1.7889424201        0.4338467386
 O          1.0550659902        0.0270779339        1.2472880054
