  62
        -98.94469423
 C         -2.5680038505       -0.1815284516       -0.3419370473
 C         -2.1310940790       -0.7185982935        0.8937450851
 C         -1.6591511930       -2.1101993576        0.8552506116
 C         -1.6537945825       -2.7729771868       -0.3151612640
 C         -1.1847220258       -4.1867617776       -0.5033908893
 C          0.2991187115       -4.2471694710       -0.8875602920
 C          1.2123229269       -3.4287455594        0.0256178861
 H          2.2396518245       -3.6016863267       -0.3050669785
 H          1.0122791057       -2.3639464232       -0.1192139992
 C          1.0918687611       -3.7653005865        1.5184318901
 H          0.6307634876       -4.7464971944        1.6429662572
 H          2.0966214925       -3.8199719652        1.9424821107
 C          0.3211584717       -2.7269744892        2.3367143212
 H          0.6969030920       -1.7292451240        2.0973835381
 H          0.5181719105       -2.9123756575        3.3963138248
 C         -1.2014934212       -2.7232187966        2.1482989336
 H         -1.5912251855       -3.7386562766        2.2536224284
 H         -1.6328085973       -2.1035963140        2.9400285341
 H          0.4104035022       -3.8673277516       -1.9061749929
 H          0.6137012493       -5.2929123302       -0.8765594675
 H         -1.7749386420       -4.6368632621       -1.3040711083
 H         -1.3547114564       -4.7424980266        0.4168712157
 O         -2.0657554115       -2.2175044467       -1.4854585881
 C         -2.5078984185       -0.9064126148       -1.5300907840
 O         -2.8276452235       -0.5086138526       -2.6716375805
 O         -2.1551355468       -0.0760942325        1.9756944778
 C         -3.0411841923        1.2589792524       -0.4202124927
 C         -1.9198470705        2.1870488648       -0.0180424409
 C         -2.1047136479        3.3333763896        0.7432019042
 C         -1.0282660537        4.1407983326        1.0737654274
 C          0.2541352683        3.8158288709        0.6712874490
 C          0.4464565769        2.6757985755       -0.0988336236
 C         -0.6341245840        1.8902364710       -0.4550085791
 H         -0.4667534958        1.0121694259       -1.0660683977
 N          1.7656116344        2.2834136575       -0.4689679733
 S          2.0545168734        0.6306647984       -0.5068139962
 O          1.7445530342        0.0613777471       -1.8055405303
 O          1.4148947134        0.0431270214        0.6404206244
 C          3.8218874261        0.6243624588       -0.2698258782
 C          4.6651956386        0.3059841143       -1.3157698101
 C          6.0355650286        0.3370181975       -1.1067297832
 C          6.5358977323        0.6868005448        0.1378443178
 C          5.6761923279        1.0026235495        1.1798732200
 C          4.3062353682        0.9723261952        0.9766945395
 H          3.5982908307        1.2022655321        1.7560554034
 H          6.0683493975        1.2718583512        2.1473651586
 H          7.6022212702        0.7111807758        0.2980299688
 H          6.7053235412        0.0886905518       -1.9143327414
 H          4.2302369527        0.0345582292       -2.2644300378
 H          2.1152668399        2.7410427882       -1.2987180328
 H          1.1001487292        4.4248259992        0.9452470308
 H         -1.1915450100        5.0269913958        1.6678814830
 H         -3.0940664712        3.5921964976        1.0843168348
 H         -3.2681161961        1.4443280955       -1.4815931881
 C         -4.3052510574        1.4545322740        0.3910700324
 C         -5.3279235107        2.4647435928       -0.0324877740
 C         -5.6106107817        1.0016452078       -0.1883878140
 H         -6.3330889481        0.5398214893        0.4673970512
 H         -5.5887651875        0.5767930424       -1.1818165725
 H         -5.8626725495        3.0081342376        0.7318084322
 H         -5.1264828822        3.0372813826       -0.9253483270
 H         -4.1452596982        1.2951503520        1.4509717176
