  62
        -98.93883629
 C         -2.4445561741       -1.1261805561       -0.2571896790
 C         -2.5117004723        0.1778859893       -0.8038541624
 C         -3.8635975408        0.7331931665       -0.9643687164
 C         -4.9290811967       -0.0126954034       -0.6195928065
 C         -6.3557283592        0.4492391388       -0.6819746779
 C         -6.7933366843        1.0805523674        0.6472137746
 C         -5.8148691989        2.1236318215        1.1873348684
 H         -6.2411000744        2.5212215466        2.1109731403
 H         -4.8771951291        1.6298621206        1.4530169464
 C         -5.5208116943        3.2794182478        0.2208418351
 H         -5.5591281199        4.2185069560        0.7768519666
 H         -6.2938930925        3.3258027519       -0.5469686362
 C         -4.1463001358        3.2135445095       -0.4477250955
 H         -3.9560058137        4.1765834387       -0.9288822929
 H         -3.3742259421        3.0694580185        0.3125548262
 C         -3.9763073596        2.1263453567       -1.5163977514
 H         -4.7902979746        2.1912307916       -2.2411099843
 H         -3.0339102605        2.3174330693       -2.0378480375
 H         -6.8923673275        0.2867079188        1.3912602686
 H         -7.7743488105        1.5377909214        0.5058873166
 H         -6.4640098118        1.1684476627       -1.4913638315
 H         -6.9883452475       -0.4155204978       -0.8888564504
 O         -4.8239144785       -1.2715226267       -0.1207895512
 C         -3.5838374941       -1.8524732029        0.0874236564
 O         -3.6275236463       -2.9991685435        0.5785337667
 H          1.5238883558       -0.9507568234       -0.3548935933
 C          1.0724104925       -0.5879913806        0.5515935362
 C         -0.2381010967       -0.9154738040        0.8620610795
 C         -0.7842328393       -0.4393728660        2.0513892493
 C         -0.0395653619        0.3532186658        2.9020423387
 C          1.2700734443        0.6736352948        2.5911174788
 C          1.8288331717        0.1998356854        1.4099484268
 N          3.1466333915        0.5584609527        1.0658843666
 S          4.3023461741       -0.5528199706        0.5513689219
 O          3.7369583137       -1.4620060240       -0.4091566826
 O          4.9364184297       -1.1554321064        1.7074499388
 C          5.4477779994        0.5469048000       -0.2565187654
 C          5.0177702891        1.1918147758       -1.4003106977
 C          5.8850767071        2.0573809924       -2.0467666740
 C          7.1609334926        2.2618319629       -1.5414804984
 C          7.5777647728        1.6068167483       -0.3930222306
 C          6.7140692569        0.7402000506        0.2591428499
 H          6.9957394895        0.2072957933        1.1529276189
 H          8.5703755239        1.7673727507       -0.0040632236
 H          7.8338440923        2.9357048116       -2.0479469522
 H          5.5639036055        2.5687666947       -2.9400481214
 H          4.0190978464        1.0017016335       -1.7590832288
 H          3.5737889681        1.1399908505        1.7756348152
 H          1.8533284062        1.2933430162        3.2560488375
 H         -0.4783338173        0.7205809204        3.8178831485
 H         -1.8062919707       -0.6977686668        2.2961410132
 C         -1.0938521735       -1.7806918679       -0.0318382442
 H         -1.2953710829       -2.7218179292        0.5017897010
 C         -0.4444683123       -2.1079909695       -1.3598704085
 C          0.5201132254       -3.2491477544       -1.4651129387
 C         -0.8430666498       -3.3613484144       -2.0771042777
 H         -0.9307770902       -3.3346433084       -3.1528403057
 H         -1.5707906329       -3.9979533469       -1.5947076623
 H          0.7237759167       -3.8142892338       -0.5677715817
 H          1.3770491337       -3.1439970924       -2.1133160109
 H         -0.2602748515       -1.2253417295       -1.9618982120
 O         -1.4989289774        0.8453320012       -1.1393780428
