  62
        -98.93343281
 C         -2.4391165997       -0.9974658592        0.5225641309
 C         -2.3788529399        0.2983793104       -0.0434760898
 C         -3.5550264201        1.1636181303        0.1816075497
 C         -4.5816963300        0.7040170805        0.9158108199
 C         -5.8855705702        1.3952374204        1.2034061095
 C         -6.9531888001        0.9866952396        0.1741488698
 C         -6.9759525403        1.8302618988       -1.0999792807
 H         -7.6785917402        1.3572706283       -1.7899889704
 H         -7.3658107405        2.8230018889       -0.8654760013
 C         -5.6265800503        1.9896258287       -1.8055689908
 H         -5.1045345701        1.0311226088       -1.8228400402
 H         -5.8229756704        2.2680939881       -2.8428555810
 C         -4.7324574905        3.0617332593       -1.1648922614
 H         -5.3309600907        3.6575274295       -0.4758725018
 H         -4.3793098707        3.7461698689       -1.9389780718
 C         -3.4854129904        2.5317865500       -0.4402228811
 H         -2.6511807204        2.4723543597       -1.1463624511
 H         -3.1886001106        3.2498146605        0.3314202885
 H         -6.7875662699       -0.0631319306       -0.0818348896
 H         -7.9369305601        1.0560238796        0.6428038897
 H         -6.2066920501        1.0568098309        2.1907098397
 H         -5.7541165504        2.4728657104        1.2274150889
 O         -4.5814758898       -0.5368904892        1.4766482707
 C         -3.5228613196       -1.4074393690        1.3038985012
 O         -3.6569626093       -2.4996127887        1.8912885418
 H          0.7367004704       -1.3939864796       -1.3795460288
 C          0.9575088904       -1.1116969190       -0.3617078490
 C          0.0204204304       -1.3352667486        0.6338421911
 C          0.3213873703       -0.9336921278        1.9321521609
 C          1.5260701102       -0.3222229674        2.2220319806
 C          2.4563824401       -0.0947014677        1.2230435804
 C          2.1650909902       -0.4882055086       -0.0753471693
 N          3.0976250502       -0.2411858290       -1.0972767095
 S          4.6822119603       -0.7379606685       -0.8707156692
 O          5.2199700603       -0.9127217091       -2.2026688891
 O          4.7561576505       -1.8848617879        0.0052722815
 C          5.4722113600        0.6637222121       -0.1085896900
 C          5.3990684897        1.8832614718       -0.7526608807
 C          6.0209402895        2.9807274422       -0.1792376813
 C          6.7036320095        2.8406264031        1.0200288587
 C          6.7702503498        1.6088152035        1.6527036595
 C          6.1495553100        0.5070795630        1.0846426501
 H          6.1704387602       -0.4688864267        1.5429221707
 H          7.3017371798        1.5019547341        2.5847086495
 H          7.1867732093        3.6967483334        1.4638924182
 H          5.9706870993        3.9405304319       -0.6677642819
 H          4.8609532197        1.9502085411       -1.6834898207
 H          2.7660609202       -0.4846482096       -2.0191800293
 H          3.3964300900        0.3860786926        1.4400138802
 H          1.7430477101       -0.0162136567        3.2343188304
 H         -0.4083841396       -1.1047526275        2.7123697410
 C         -1.3074798594       -1.9999845191        0.3688017415
 H         -1.4757139393       -2.7386670087        1.1697451520
 C         -1.3357628893       -2.7746689598       -0.9409031080
 C         -2.6387168192       -3.1481660205       -1.5806599378
 C         -1.7368515194       -2.1529734607       -2.2435398784
 H         -1.2117761293       -2.4567094611       -3.1379512982
 H         -2.0213306996       -1.1128283808       -2.2375405790
 H         -2.7338959490       -4.1309438308       -2.0173063172
 H         -3.5438630693       -2.7893677804       -1.1124747880
 H         -0.5493405691       -3.5232474897       -0.9802353176
 O         -1.4066202400        0.7270771303       -0.7166838101
