  62
        -98.94270122
 C         -1.3249328991       -1.6079512005        0.3225017307
 C         -1.9216380296       -1.1130425611       -0.8632188893
 C         -2.9537021999       -0.0792039815       -0.6786445894
 C         -3.2109063999        0.3915193988        0.5547226405
 C         -4.2079206402        1.4675224885        0.8728407104
 C         -3.5745138008        2.8645961888        0.8303642097
 C         -2.7567139312        3.1354474987       -0.4319925205
 H         -2.3869851516        4.1609416888       -0.3685068010
 H         -1.8849342309        2.4769764390       -0.4396929105
 C         -3.5342381314        2.9604598179       -1.7435885303
 H         -4.6067821914        2.9800206575       -1.5469075701
 H         -3.3101897819        3.8038103778       -2.4002356806
 C         -3.1856000111        1.6882305978       -2.5172598800
 H         -2.1012713211        1.6168381082       -2.6367845402
 H         -3.6181185513        1.7686649273       -3.5182832599
 C         -3.6939014904        0.3770976978       -1.9052648694
 H         -4.7626429304        0.4617970474       -1.6965941992
 H         -3.5520830602       -0.4113281924       -2.6505503792
 H         -4.3716699811        3.6053636485        0.9151065297
 H         -2.9165294106        2.9714329593        1.6948301396
 H         -5.0300927204        1.4100555780        0.1615743106
 H         -4.5970415199        1.2857817987        1.8761180705
 O         -2.5598724994       -0.0489168105        1.6605322405
 C         -1.6314591990       -1.0720649202        1.5768804106
 O         -1.1509315886       -1.4182079396        2.6735217106
 H          0.5297133402       -0.5606047902       -1.0917302600
 C          1.3515116205       -1.1449578498       -0.7036152700
 C          1.0935235711       -2.2910804496        0.0313496404
 C          2.1745376015       -3.0243938690        0.5107378504
 C          3.4737182013       -2.6226115286        0.2580926600
 C          3.7257772107       -1.4716637787       -0.4684701404
 C          2.6545413703       -0.7303362293       -0.9455923605
 N          2.9071774296        0.4792219106       -1.6352239009
 S          3.4398620493        1.7323722111       -0.6558161515
 O          3.4723010387        2.9071091608       -1.4957241419
 O          4.6870124296        1.3396991618       -0.0528578116
 C          2.1810317695        1.9129084010        0.5967733388
 C          2.0989294302        0.9719516713        1.6052151491
 C          1.0675818103        1.0651785712        2.5261722693
 C          0.1534305699        2.1031694308        2.4355825892
 C          0.2615893093        3.0519214705        1.4306567788
 C          1.2745637491        2.9484756506        0.4908445386
 H          1.3858304986        3.6559690504       -0.3153396016
 H         -0.4419744411        3.8668001502        1.3732547887
 H         -0.6488551900        2.1630433507        3.1545496693
 H          0.9643364508        0.3181149114        3.2969589696
 H          2.8360695305        0.1877201916        1.6620364592
 H          2.1098845194        0.7995355001       -2.1681846308
 H          4.7290126905       -1.1220785384       -0.6483016108
 H          4.2996951316       -3.2040572181        0.6379217500
 H          1.9911216020       -3.9121578289        1.0960985208
 C         -0.3178677486       -2.7427787901        0.3299802909
 H         -0.3224492682       -3.1359199397        1.3564629110
 C         -0.7052879184       -3.8697981806       -0.6121565386
 C         -0.3980634877       -5.2907304203       -0.2532008882
 C         -1.8138699079       -4.8002102409       -0.2252115381
 H         -2.4978931880       -5.1326294714       -0.9912794778
 H         -2.2800389578       -4.6450405307        0.7373054720
 H         -0.1024492776       -5.9662310305       -1.0411699181
 H          0.0814136026       -5.4837412198        0.6942158717
 H         -0.6398057787       -3.5883902709       -1.6555263388
 O         -1.6247592897       -1.4972291814       -2.0260306992
