  62
        -98.94498462
 C         -1.8440901534       -1.2559150928       -0.0366172535
 C         -3.0724333059       -0.9318564853        0.5874977950
 C         -3.8630788022        0.1224286438       -0.0579856650
 C         -3.4031609978        0.7115215214       -1.1768933507
 C         -4.1056313158        1.7836727148       -1.9654257053
 C         -3.8967662320        3.2036953910       -1.4213686843
 C         -4.6382790484        3.5197923287       -0.1217480252
 H         -4.5808810687        4.6001772726        0.0253164083
 H         -5.6919151811        3.2622778869       -0.2336741131
 C         -4.0655036899        2.8224766916        1.1202110464
 H         -3.0551125546        2.4664679324        0.9040018115
 H         -3.9806607002        3.5433191812        1.9367092341
 C         -4.9041586462        1.6518336025        1.6335037703
 H         -4.3879364870        1.2091283599        2.4894023318
 H         -5.8726152675        2.0198829835        1.9791635186
 C         -5.1427254172        0.5447701136        0.5984819993
 H         -5.8626330688        0.8777055048       -0.1489282868
 H         -5.5527720649       -0.3254243562        1.1170341487
 H         -2.8263103519        3.3719592868       -1.2798601321
 H         -4.2420722625        3.9001818977       -2.1888720235
 H         -5.1728705569        1.5645237386       -2.0101699355
 H         -3.6993197600        1.7409681897       -2.9782762304
 O         -2.2169215954        0.3721760263       -1.7475868053
 C         -1.4054951777       -0.6134220248       -1.1951640733
 O         -0.3454338071       -0.8066346859       -1.8162417032
 O         -3.4893270022       -1.4986198396        1.6338484390
 C         -0.9896205394       -2.3529155717        0.5661556598
 C          0.4066176176       -1.8864966632        0.9022475702
 C          1.4804699334       -2.7694205676        0.9510446885
 C          2.7486420038       -2.3231215677        1.2787670772
 C          2.9831288996       -0.9860446300        1.5419629877
 C          1.9212631674       -0.0932957776        1.4794392517
 C          0.6443370850       -0.5497248997        1.1878092556
 H         -0.1770761379        0.1556202579        1.1584720096
 N          2.1570025002        1.2762168286        1.6851572113
 S          3.5013053808        1.9469528663        0.9415848853
 O          4.6415184454        1.8137180689        1.8157586844
 O          3.1175724764        3.3059342577        0.6243566736
 C          3.7888854000        1.0055109710       -0.5485394325
 C          5.0608255932        0.5335729734       -0.8059897316
 C          5.2816913759       -0.2093974857       -1.9541878216
 C          4.2292220077       -0.4776556484       -2.8160952083
 C          2.9584091248        0.0050938357       -2.5452942420
 C          2.7354101122        0.7604576458       -1.4058767199
 H          1.7474124404        1.1308695465       -1.1832756898
 H          2.1247682167       -0.2152169890       -3.1926014731
 H          4.3970422031       -1.0688987140       -3.7024507438
 H          6.2696273980       -0.5844656500       -2.1678212706
 H          5.8451110638        0.7496543738       -0.0986405165
 H          1.3432214478        1.8560970038        1.5429125989
 H          3.9654627223       -0.6179395275        1.7909268588
 H          3.5681528612       -3.0236361934        1.3205951254
 H          1.3209543483       -3.8121657412        0.7310882602
 H         -1.4922266520       -2.6283719502        1.5063448648
 C         -0.9861836558       -3.5623344333       -0.3511260249
 C         -1.0133371830       -4.9521211562        0.2093461576
 C         -2.2312666879       -4.3896080251       -0.4573859744
 H         -2.5176794586       -4.7712044832       -1.4259026319
 H         -3.0683072969       -4.1032096507        0.1628929823
 H         -0.4620316638       -5.7255645719       -0.3039748845
 H         -1.0344555239       -5.0609805755        1.2833425780
 H         -0.4234357872       -3.3875837208       -1.2613151649
