  62
        -98.93665610
 C         -2.6276310908       -0.4328348556        0.2207633965
 C         -2.2872292737       -1.2775422290       -0.8675092648
 C         -1.4723238124       -2.4580846808       -0.5617734079
 C         -1.1180029394       -2.6916700900        0.7142340070
 C         -0.1772875937       -3.7684191736        1.1757745031
 C          1.2767913040       -3.3193062621        0.9211653346
 C          2.0247799067       -4.1542793483       -0.1193298392
 H          2.9391885722       -3.6122951183       -0.3693889946
 H          2.3144383014       -5.1060009657        0.3321241848
 C          1.2585181937       -4.4616971108       -1.4097643497
 H          1.9925761667       -4.8093537334       -2.1397891866
 H          0.5719488380       -5.2923808879       -1.2379350864
 C          0.4719612889       -3.2940131575       -2.0200517623
 H          0.8811277484       -2.3357538023       -1.6953923415
 H          0.5816525195       -3.3375161581       -3.1058326011
 C         -1.0383555978       -3.3179921146       -1.7148201215
 H         -1.3693085484       -4.3479807204       -1.5550343851
 H         -1.5795304872       -2.9246325594       -2.5802068778
 H          1.2633356587       -2.2712062554        0.6100621390
 H          1.8370412559       -3.3545752794        1.8575711111
 H         -0.3470034366       -3.9157702073        2.2427775797
 H         -0.3910858528       -4.6982719901        0.6532299402
 O         -1.5201779844       -1.9027444766        1.7419676122
 C         -2.2259033485       -0.7240904919        1.5242631804
 O         -2.4301341972       -0.0736721365        2.5681909130
 O         -2.6490290378       -1.0392270167       -2.0530059107
 C         -3.2851168535        0.8826668607       -0.1553575927
 C         -2.2188105473        1.8545966714       -0.6173193149
 C         -2.4729399058        2.7809484162       -1.6224963902
 C         -1.4695551224        3.6174771450       -2.0778395483
 C         -0.1865490135        3.5241475589       -1.5680407018
 C          0.0745196146        2.6078605101       -0.5563223308
 C         -0.9475921857        1.8093161428       -0.0674042020
 H         -0.7251371709        1.1143471645        0.7286502742
 N          1.3621882732        2.4555651511       -0.0140922386
 S          1.8347518545        0.8768467915        0.3784787174
 O          1.3792115451       -0.0455780768       -0.6363152344
 O          1.4384343684        0.5947381465        1.7350760678
 C          3.6085223671        1.0466658989        0.3043077717
 C          4.2580841156        1.6480715082        1.3660229796
 C          5.6319925069        1.8168900485        1.3018412750
 C          6.3296516757        1.3837339848        0.1837528590
 C          5.6645908151        0.7793025803       -0.8722882733
 C          4.2897844553        0.6097575533       -0.8156338007
 H          3.7300447223        0.1411618764       -1.6092668392
 H          6.2094929931        0.4399772330       -1.7383541885
 H          7.3990027981        1.5156163080        0.1367306692
 H          6.1523606349        2.2838478992        2.1223666621
 H          3.6738301333        1.9577925043        2.2169050669
 H          2.0736691890        2.9332827340       -0.5510379102
 H          0.6061012294        4.1485142308       -1.9512002396
 H         -1.6801720560        4.3302149921       -2.8605108802
 H         -3.4572612226        2.8273985201       -2.0628453875
 H         -3.9212236223        0.6621157504       -1.0251479674
 C         -4.1458321474        1.5113976073        0.9200420020
 C         -5.3184883311        2.3588175176        0.5288667869
 C         -5.5398887158        1.0075242441        1.1371998529
 H         -5.9068425123        0.9423399161        2.1499243241
 H         -5.8846339337        0.2091160347        0.4963645580
 H         -5.5387318166        3.2323672155        1.1225718618
 H         -5.5292260270        2.4755949065       -0.5230823473
 H         -3.5851697303        1.8029800847        1.7987737093
