  62
        -98.94492988
 C          1.9570944452        0.8442918664        0.0523405140
 C          2.2643055025       -0.1128420549        1.0465566240
 C          2.3595312934       -1.5024508914        0.5890747056
 C          2.1172132679       -1.7971519453       -0.7012706214
 C          2.1327299016       -3.1729900870       -1.3113382522
 C          3.5295118069       -3.6649991895       -1.7155239750
 C          4.4447562725       -4.0513554855       -0.5529107199
 H          3.9233014449       -4.7517824054        0.1000653915
 H          5.3002008982       -4.5777512301       -0.9806423006
 C          4.9585532555       -2.8620727923        0.2703692136
 H          4.8198545524       -1.9392209796       -0.2973974085
 H          6.0310191929       -2.9748158072        0.4435120772
 C          4.2937033434       -2.7034608381        1.6377607510
 H          4.5320021494       -3.5655205649        2.2645766746
 H          4.7055664939       -1.8124148260        2.1181866381
 C          2.7680670111       -2.5473682075        1.5833018305
 H          2.2979073426       -3.5017848514        1.3458720439
 H          2.4175327399       -2.2223242899        2.5662778119
 H          4.0103598814       -2.8903055102       -2.3170312074
 H          3.3931845542       -4.5432420067       -2.3506663741
 H          1.6786306654       -3.8826550864       -0.6187655098
 H          1.5099291933       -3.1185061441       -2.2070208793
 O          1.8062389666       -0.8495178118       -1.6252607814
 C          1.7149288309        0.4880415308       -1.2745583235
 O          1.4295604135        1.2491745733       -2.2196468811
 H         -0.4538827643        0.9429912200        0.8844900711
 C         -0.6576212213        1.8939694951        0.4124645830
 C          0.3928280511        2.7539173058        0.1172623148
 C          0.1019884377        3.9771976458       -0.4722360410
 C         -1.2047093135        4.3069679468       -0.7894194118
 C         -2.2404796605        3.4264751313       -0.5391986837
 C         -1.9615003211        2.2083812355        0.0713887721
 N         -2.9882314036        1.2928285813        0.3664730031
 S         -2.6315232240       -0.3549714275        0.2507218218
 O         -2.0125021359       -0.7828834129        1.4813445056
 O         -1.9046980011       -0.6339113427       -0.9674328849
 C         -4.2824902613       -1.0240753345        0.1556433824
 C         -4.8120479839       -1.3558357004       -1.0769282673
 C         -6.1076834838       -1.8448048787       -1.1403971770
 C         -6.8485692745       -1.9892454860        0.0229528114
 C         -6.3033958696       -1.6519661963        1.2530579165
 C         -5.0083156113       -1.1639482101        1.3236736131
 H         -4.5377070352       -0.8972541432        2.2555147666
 H         -6.8812490262       -1.7680410179        2.1556386059
 H         -7.8564115702       -2.3695781351       -0.0293147343
 H         -6.5321922409       -2.1108272790       -2.0949723949
 H         -4.1943793976       -1.2334310437       -1.9524463676
 H         -3.8535684143        1.5135275925       -0.1082806374
 H         -3.2547627443        3.6750371868       -0.8121725679
 H         -1.4163377242        5.2570192550       -1.2562036595
 H          0.8995045435        4.6661942678       -0.6974157209
 C          1.7925507371        2.2991331673        0.4519173415
 H          1.9108319211        2.3180383156        1.5463104726
 C          2.8743840748        3.1550979616       -0.1726264865
 C          3.3606655210        4.3900584246        0.5238734332
 C          4.2338314822        3.1744244819        0.4574327201
 H          5.1002603636        3.1925214823       -0.1864261416
 H          4.3693777686        2.5896602030        1.3556913598
 H          3.6318549579        5.2462343676       -0.0751025281
 H          2.9108945484        4.6377723420        1.4734019620
 H          2.8234148696        3.1597283198       -1.2558123723
 O          2.4451340640        0.1810171644        2.2606110187
