  62
        -98.94373503
 C         -1.4885695906       -1.2584204429        0.7172507157
 C         -2.5492519364       -1.1714050025       -0.2166472793
 C         -3.4289109808        0.0010098548       -0.0760504762
 C         -3.1422937301        0.9420695559        0.8412076712
 C         -3.9155754866        2.2138901459        1.0363530415
 C         -3.3759529809        3.3494289178        0.1546547093
 C         -3.1812318959        2.9596951144       -1.3103677616
 H         -2.8128520243        3.8427310617       -1.8372252090
 H         -2.4040734886        2.1948239561       -1.3805277179
 C         -4.4476101388        2.4389260552       -2.0029322328
 H         -4.5331414938        2.9120907595       -2.9834234345
 H         -5.3300879179        2.7229938473       -1.4284520682
 C         -4.4569963716        0.9268494583       -2.2322061631
 H         -5.2834418023        0.6892610518       -2.9073814718
 H         -3.5321154809        0.6247122573       -2.7300570444
 C         -4.6325319667        0.0663203787       -0.9749187057
 H         -5.5066294541        0.4085034908       -0.4166329452
 H         -4.8158153946       -0.9609727216       -1.3033205352
 H         -2.4127096480        3.6750858601        0.5532595638
 H         -4.0681407467        4.1910719908        0.2170470985
 H         -4.9634433595        2.0313962935        0.8047445836
 H         -3.8326960593        2.5084550154        2.0838047726
 O         -2.0762934858        0.8563296733        1.6770487938
 C         -1.2385426084       -0.2434284486        1.6469128497
 O         -0.3174943567       -0.2105100827        2.4863671121
 H          1.9717862269       -1.5213946929        1.2829691890
 C          1.8185598197       -1.6391958985        0.2183858455
 C          0.5986609002       -2.1144385697       -0.2426668858
 C          0.4014649605       -2.2243646157       -1.6150377459
 C          1.4062318808       -1.8700716006       -2.4977948806
 C          2.6230999184       -1.3986611525       -2.0346632857
 C          2.8246089488       -1.2786964214       -0.6668817225
 N          4.0546458623       -0.7658381682       -0.1909259905
 S          4.2881419866        0.8717537402       -0.4620517173
 O          4.3045989586        1.1056240178       -1.8829050116
 O          5.4885068543        1.2220778309        0.2617014941
 C          2.8711492977        1.6603299401        0.2786729253
 C          1.6972272713        1.7388821129       -0.4428173749
 C          0.5772985548        2.2822819453        0.1640628728
 C          0.6456443641        2.7276156249        1.4742117581
 C          1.8315192243        2.6394943185        2.1854224403
 C          2.9553122177        2.0960634233        1.5857291233
 H          3.8973611265        2.0090448442        2.1035531158
 H          1.8773446207        2.9811161042        3.2069433815
 H         -0.2351030661        3.1308029112        1.9487738973
 H         -0.3496854774        2.3440161095       -0.3840015907
 H          1.6770631913        1.3798654794       -1.4595145693
 H          4.1986386292       -0.9485227431        0.7932276991
 H          3.4075204955       -1.0976136979       -2.7097700545
 H          1.2396686775       -1.9580800969       -3.5608698995
 H         -0.5552589954       -2.5611941403       -1.9831369672
 C         -0.4984495544       -2.4142937205        0.7488184265
 H         -0.0525333182       -2.3946527382        1.7523576433
 C         -1.1251601372       -3.7757133090        0.5354276444
 C         -0.3566441601       -4.9926106565        0.9516610588
 C         -1.5679598562       -4.5695239508        1.7259659987
 H         -2.4671920470       -5.1613481688        1.6440693783
 H         -1.4216632717       -4.1329681830        2.7035125505
 H          0.6121424735       -4.8422145806        1.4042219842
 H         -0.4210960707       -5.8775872150        0.3375668092
 H         -1.7334267660       -3.8443290268       -0.3555921679
 O         -2.7773881344       -2.0145847135       -1.1229500723
