  62
        -98.94030089
 C         -1.8260271170       -0.7852386122       -0.8431183388
 C         -2.0853787889       -0.3281651126        0.4728241057
 C         -3.5052513511       -0.2329825896        0.8432861765
 C         -4.4566914029       -0.6199531341       -0.0243884205
 C         -5.9412030226       -0.6067925645        0.2205568219
 C         -6.6052015747        0.7524430827       -0.0386932050
 C         -6.3094744966        1.8301456729        1.0051436219
 H         -7.0039636554        2.6523922861        0.8215482022
 H         -6.5245690924        1.4388472302        2.0000010527
 C         -4.8754615381        2.3763229639        0.9630827455
 H         -4.8997140160        3.4668799410        1.0191233958
 H         -4.4146054877        2.1159022168        0.0074659570
 C         -3.9758570633        1.8843218310        2.0970058834
 H         -2.9778018669        2.3044682357        1.9493964582
 H         -4.3573690402        2.2512360274        3.0524059149
 C         -3.8403027600        0.3581495826        2.1793860467
 H         -3.0195467801        0.1216030646        2.8609860740
 H         -4.7579480763       -0.0805523960        2.5707586397
 H         -6.3006566820        1.1074649491       -1.0260162708
 H         -7.6848693886        0.5875908725       -0.0641392608
 H         -6.1468017116       -0.9244405099        1.2432213714
 H         -6.3751502740       -1.3384314669       -0.4645420741
 O         -4.1631457784       -1.1085536347       -1.2594161932
 C         -2.8521340965       -1.1930803933       -1.6992643826
 O         -2.7297654692       -1.6552098469       -2.8516887292
 O         -1.1942513802       -0.0170156358        1.3032206378
 C         -0.4092396973       -0.9279793363       -1.3709069075
 C          0.4653758041       -1.6025944329       -0.3422958325
 C          0.0576801577       -2.8278396960        0.1810980737
 C          0.8224561671       -3.4840902178        1.1242426613
 C          2.0283641487       -2.9492369999        1.5445093864
 C          2.4513281292       -1.7364776726        1.0187747966
 C          1.6673379261       -1.0666795966        0.0892780011
 H          2.0046977999       -0.1139436647       -0.2813067625
 N          3.6692389488       -1.1597521262        1.4138615115
 S          4.6788081150       -0.5360652212        0.2325382718
 O          4.5441793949       -1.2563265018       -1.0127111522
 O          5.9965165313       -0.5458054594        0.8324096413
 C          4.1597180509        1.1534925463        0.0229203520
 C          3.9917954647        1.6557222056       -1.2522802334
 C          3.6271751528        2.9839237880       -1.4077262088
 C          3.4392169508        3.7826340818       -0.2899188527
 C          3.6124693380        3.2626711985        0.9839625321
 C          3.9795054716        1.9364278826        1.1458103262
 H          4.1241495640        1.4987067377        2.1192364729
 H          3.4617298585        3.8866802295        1.8500577565
 H          3.1530091591        4.8153449788       -0.4132632345
 H          3.4897303038        3.3887668828       -2.3979368547
 H          4.1400084439        0.9963652276       -2.0929061010
 H          4.1865377187       -1.6925790630        2.0980727704
 H          2.6327078982       -3.4648637395        2.2756888474
 H          0.4846508647       -4.4263099800        1.5295605707
 H         -0.8792105006       -3.2526115785       -0.1549581528
 H         -0.4946219911       -1.6145941625       -2.2303661794
 C          0.1865972271        0.3656045435       -1.9077881637
 C         -0.6890806253        1.4697343566       -2.4184373341
 C          0.0922334094        1.6574373595       -1.1546318365
 H          0.9436171986        2.3221242795       -1.1704626329
 H         -0.4346481240        1.6442410821       -0.2142592384
 H         -0.3761724302        2.0015888479       -3.3042738816
 H         -1.7586536721        1.3335475661       -2.3472954033
 H          1.1047557555        0.1881314502       -2.4606012263
