  62
        -98.94760542
 C          0.7644968321        1.2672077442        0.0604425814
 C          1.4766549519        0.5869531631        1.0757500239
 C          2.4051071894       -0.4551763171        0.6184296180
 C          2.4746050602       -0.7434024619       -0.6940816963
 C          3.4456335591       -1.7078051167       -1.3094766846
 C          4.7425526037       -0.9943029931       -1.7202471156
 C          5.3377645290       -0.1060688616       -0.6275127741
 H          6.2614986753        0.3213230249       -1.0237492377
 H          4.6573487762        0.7262721541       -0.4332413819
 C          5.6367643326       -0.8332401275        0.6909588274
 H          5.6696610117       -1.9099769227        0.5212654023
 H          6.6254910125       -0.5302782482        1.0419280462
 C          4.6509787820       -0.5287982126        1.8205829546
 H          4.5467030674        0.5531229628        1.9355430729
 H          5.0701040364       -0.9170851516        2.7528158836
 C          3.2509632035       -1.1346829020        1.6581791940
 H          3.3411854774       -2.2023302997        1.4502849920
 H          2.7206356682       -1.0092971144        2.6068651072
 H          5.4737036839       -1.7494322828       -2.0143890918
 H          4.5318541349       -0.3680496408       -2.5901008475
 H          3.6664194130       -2.5016369143       -0.5992752898
 H          2.9859481516       -2.1375193860       -2.2001474909
 O          1.7026741434       -0.1334319444       -1.6285364721
 C          0.8546311264        0.9079748456       -1.2844062526
 O          0.2480687964        1.4167733996       -2.2453859812
 H         -1.5393696063        0.1809538864        0.4727953188
 C         -2.1084109370        0.9848850151        0.0287317898
 C         -1.5303423311        2.2431336908       -0.0803031262
 C         -2.2787566414        3.2718928010       -0.6381066051
 C         -3.5666785598        3.0361587651       -1.0863370347
 C         -4.1353896391        1.7809404694       -0.9819231700
 C         -3.3966024474        0.7450151256       -0.4197099168
 N         -3.9303052119       -0.5457423928       -0.3355883537
 S         -3.3973292069       -1.6570257698        0.7811314080
 O         -4.3985800347       -2.7025195614        0.7422256987
 O         -3.1694527654       -1.0584483754        2.0760369072
 C         -1.8806047218       -2.3004823929        0.1094086924
 C         -0.8279311220       -2.5665966336        0.9615707584
 C          0.3199529910       -3.1477239763        0.4484888488
 C          0.3966416221       -3.4473227481       -0.9022293798
 C         -0.6631587879       -3.1598643659       -1.7479675850
 C         -1.8171295431       -2.5863412092       -1.2395640826
 H         -2.6616265018       -2.3558261662       -1.8675266619
 H         -0.5949437142       -3.3832765455       -2.8005135611
 H          1.2877867901       -3.9085460015       -1.2967719605
 H          1.1453195901       -3.3639175808        1.1070549672
 H         -0.9219634358       -2.3062509995        2.0044727253
 H         -4.9048453574       -0.6447947874       -0.5746958153
 H         -5.1381564731        1.5971741880       -1.3358649772
 H         -4.1362589172        3.8426623007       -1.5226541043
 H         -1.8532300048        4.2578677275       -0.7271216462
 C         -0.1276390540        2.4337593670        0.4392925535
 H         -0.1696211595        2.4284200010        1.5395871272
 C          0.5104330189        3.7313780753       -0.0166909506
 C          0.3143861069        4.9945855494        0.7656849892
 C          1.6418340010        4.2999738552        0.7844112411
 H          2.4707602990        4.7519309644        0.2604618848
 H          1.9291940120        3.7673606647        1.6794356870
 H         -0.2958323248        4.9427217768        1.6548018112
 H          0.2343230981        5.9275330541        0.2282111494
 H          0.5777427416        3.8011742909       -1.0970405900
 O          1.3547259984        0.8500280407        2.3036544109
