  62
        -98.94159162
 C          1.9908846418        1.4926726352        0.0243038589
 C          2.2095791756        0.5187830166       -0.9811675105
 C          3.5517188792       -0.0867601622       -1.0076971389
 C          4.4737453837        0.2943208071       -0.1064503571
 C          5.8554513578       -0.2797921938        0.0085350195
 C          5.8870414112       -1.4643239060        0.9842502719
 C          4.7942669178       -2.5027784191        0.7302611341
 H          4.9342437260       -3.3066539230        1.4563035178
 H          3.8197958727       -2.0529819587        0.9352882537
 C          4.7937829743       -3.0895815182       -0.6883174015
 H          4.6684543079       -4.1722752064       -0.6188251970
 H          5.7568667919       -2.9054376055       -1.1657317392
 C          3.6732666607       -2.5689412485       -1.5904324799
 H          2.7145717444       -2.6681168735       -1.0746436382
 H          3.6321877455       -3.2028387430       -2.4803488526
 C          3.8188424308       -1.1183661141       -2.0680105123
 H          4.8085386951       -0.9737772384       -2.5057101537
 H          3.0699948782       -0.9493013544       -2.8473442562
 H          6.8667553454       -1.9408775764        0.9173053789
 H          5.7644135681       -1.0804197119        1.9996757425
 H          6.1948598426       -0.5971046441       -0.9755877539
 H          6.5218821611        0.5013416789        0.3782915103
 O          4.2288865233        1.2298378795        0.8455293252
 C          2.9919706399        1.8430738026        0.9363490615
 O          2.9064021414        2.6826947084        1.8546794387
 O          1.3460846887        0.1548836253       -1.8214318940
 C          0.6777132591        2.2430448043        0.1892247969
 C         -0.3231702800        1.4399455914        0.9783211227
 C         -0.9465300534        1.9772522299        2.0980664814
 C         -1.8758149490        1.2386112958        2.8106112469
 C         -2.2074899686       -0.0453493398        2.4170363712
 C         -1.5931844335       -0.5894547842        1.2960918807
 C         -0.6568568626        0.1497097720        0.5879713377
 H         -0.1811722342       -0.2776270304       -0.2825654603
 N         -1.9354750166       -1.8905306847        0.8732361216
 S         -3.5535120277       -2.1652356651        0.5301020311
 O         -4.2966594609       -2.2010889646        1.7644236146
 O         -3.5803626120       -3.3699373778       -0.2670621016
 C         -4.0532414701       -0.7588470739       -0.4448315970
 C         -3.7990560887       -0.7784140382       -1.8019387882
 C         -4.1165568627        0.3369470390       -2.5598974806
 C         -4.6658582777        1.4531991903       -1.9477575240
 C         -4.9136884770        1.4574322264       -0.5839556253
 C         -4.6070577956        0.3415911567        0.1784459396
 H         -4.7927485037        0.3030515329        1.2389296868
 H         -5.3410987407        2.3267320918       -0.1110399278
 H         -4.9002992118        2.3248658254       -2.5375444742
 H         -3.9255814699        0.3347506446       -3.6209066592
 H         -3.3693621517       -1.6651752949       -2.2400330134
 H         -1.3672702326       -2.2116326503        0.1017714092
 H         -2.9328991492       -0.6335464200        2.9556932105
 H         -2.3463909779        1.6665733913        3.6826235543
 H         -0.6877014973        2.9763901487        2.4167556808
 H          0.9348487036        3.1299167766        0.7889376662
 C          0.1198873957        2.7478535168       -1.1366471628
 C         -1.1108996788        2.2058766155       -1.7923331558
 C         -1.1412514197        3.5607482929       -1.1565009103
 H         -1.1843615653        4.4341090673       -1.7890033491
 H         -1.6784519584        3.6593569715       -0.2252760552
 H         -1.1089396250        2.1336958806       -2.8689934488
 H         -1.6449411376        1.4046213124       -1.3070354241
 H          0.9141157012        3.0680878141       -1.8039759186
