  62
        -98.93735884
 C         -2.2808940630       -0.5360898921       -0.2341668323
 C         -3.5377035401       -1.0263940741       -0.6730949348
 C         -4.7062135773       -0.6247154132        0.1203847942
 C         -4.5227985623        0.1200433349        1.2253668227
 C         -5.6250500519        0.6535513485        2.0927470626
 C         -6.0680446346        2.0479372253        1.6274913165
 C         -6.3447763518        2.1398997155        0.1267091508
 H         -6.6776139511        3.1592484705       -0.0806121283
 H         -5.4093044932        1.9920894007       -0.4181415697
 C         -7.3941290045        1.1445351601       -0.3879929026
 H         -7.9846589339        0.7648045474        0.4464825990
 H         -8.0780922750        1.6718268339       -1.0562915016
 C         -6.8193292557       -0.0327227735       -1.1781008899
 H         -7.6473820548       -0.5468362540       -1.6731699121
 H         -6.1531667049        0.3409142027       -1.9601872047
 C         -6.0573036254       -1.0792205751       -0.3552584040
 H         -5.8722042312       -1.9415174912       -1.0024662377
 H         -6.6725129917       -1.4057593008        0.4854344747
 H         -6.9651113019        2.3283975613        2.1823904216
 H         -5.2784381621        2.7616999666        1.8737820979
 H         -5.2543998263        0.7221442029        3.1167586807
 H         -6.4673292531       -0.0349722171        2.0658946437
 O         -3.2977560882        0.5133602300        1.6548650694
 C         -2.1453348673        0.2080965678        0.9389534181
 O         -1.1035380105        0.6468266512        1.4594660997
 O         -3.6745544690       -1.7686611432       -1.6822288547
 C         -1.0616891393       -0.9004644791       -1.0611940500
 C          0.0626450761       -1.3764009389       -0.1776752083
 C         -0.1082784359       -2.5532002415        0.5476700329
 C          0.8952313658       -3.0296070024        1.3680067954
 C          2.0984268721       -2.3532926087        1.4684421429
 C          2.2757290495       -1.1740652832        0.7554177156
 C          1.2609646401       -0.6921601920       -0.0596979914
 H          1.4189263155        0.2357404917       -0.5834771478
 N          3.4728971252       -0.4488532086        0.8585132438
 S          4.0375842007        0.3793061419       -0.4968861024
 O          3.4112087453        1.6755816487       -0.5606896634
 O          3.9059592621       -0.4504557209       -1.6742942192
 C          5.7580889221        0.5656678258       -0.0638373673
 C          6.6806209139       -0.3457205631       -0.5421227503
 C          8.0103289286       -0.2091127210       -0.1754608418
 C          8.3924287776        0.8286950413        0.6612603637
 C          7.4551854948        1.7358311720        1.1332457928
 C          6.1242579039        1.6057558549        0.7696325036
 H          5.3620311869        2.2903141106        1.1040559896
 H          7.7563089927        2.5429762755        1.7813884626
 H          9.4276608005        0.9332854962        0.9451923803
 H          8.7417001390       -0.9106429995       -0.5431650585
 H          6.3388128352       -1.1308937119       -1.1971731492
 H          4.2084320984       -0.9588544313        1.3274755434
 H          2.8866436797       -2.7272607235        2.1042219867
 H          0.7453217628       -3.9410238746        1.9272397758
 H         -1.0464779430       -3.0852934844        0.4630754405
 H         -1.3926609083       -1.7565293554       -1.6741373596
 C         -0.6284883251        0.1850585558       -2.0352119931
 C         -1.6300975834        1.1030736405       -2.6673058149
 C         -0.6430320675        1.6393054778       -1.6764107820
 H          0.1673921698        2.2596833445       -2.0318859908
 H         -0.9910780221        1.9083768855       -0.6911790591
 H         -1.5079857464        1.3588512174       -3.7089856595
 H         -2.6605487604        1.0049792488       -2.3578209230
 H          0.1892553870       -0.1460534095       -2.6700167912
