  62
        -98.93914879
 C         -2.0905768943       -1.4205281969        0.2595736974
 C         -1.6659348394       -0.3216456234       -0.5267097441
 C         -2.7162457824        0.6363053105       -0.9084215847
 C         -3.9862514386        0.4194872308       -0.5235717132
 C         -5.1377717978        1.3404849907       -0.8020618885
 C         -5.3273819792        2.3533275882        0.3362495315
 C         -4.0384727719        3.0570689061        0.7612807904
 H         -4.3017360691        3.7666381635        1.5486284905
 H         -3.3611753729        2.3229336904        1.2036314256
 C         -3.3127204098        3.7970572047       -0.3711846217
 H         -3.0018315712        4.7775315390       -0.0046794329
 H         -3.9977000033        3.9650606653       -1.2030184567
 C         -2.0548548517        3.0935355005       -0.8848294386
 H         -1.4151336634        2.8265118901       -0.0397067413
 H         -1.5008740547        3.7981300573       -1.5108383853
 C         -2.2938023760        1.8289157312       -1.7193005622
 H         -3.0179751624        2.0379934204       -2.5092711835
 H         -1.3445768228        1.5539764173       -2.1893094612
 H         -6.0619633340        3.0953004474        0.0181040628
 H         -5.7310359786        1.8263893849        1.2039470156
 H         -4.9607130518        1.8613009559       -1.7410911196
 H         -6.0439921093        0.7396701345       -0.8962073942
 O         -4.3584809523       -0.6535511644        0.2203773357
 C         -3.4225619793       -1.5783099497        0.6531778554
 O         -3.8896812202       -2.4802644998        1.3757642128
 O         -0.4776662711       -0.1306670253       -0.8927241939
 C         -1.1089492129       -2.4655463689        0.7643029534
 C          0.1597655364       -1.7873381268        1.2191784391
 C          0.0844441273       -0.8643656577        2.2594806567
 C          1.2036670377       -0.1742153785        2.6827013554
 C          2.4279116175       -0.3905141574        2.0743025726
 C          2.5159042476       -1.3151999248        1.0436831229
 C          1.3932316940       -2.0162279665        0.6285729350
 H          1.4833687117       -2.7043079941       -0.1979996936
 N          3.7768196213       -1.4975008263        0.4105836122
 S          4.0130374985       -0.4600624419       -0.9070282170
 O          3.1244673256       -0.8089951346       -1.9950451154
 O          5.4229389121       -0.5558432794       -1.2240161155
 C          3.6398155941        1.1541911282       -0.2665773810
 C          4.6710057449        1.9004169819        0.2702242145
 C          4.3906045039        3.1539040634        0.7891185980
 C          3.0895967166        3.6335875277        0.7633894231
 C          2.0678287548        2.8697503528        0.2205699782
 C          2.3377753640        1.6137629689       -0.3010098470
 H          1.5596214434        0.9925879885       -0.7180676719
 H          1.0554422037        3.2411398266        0.2016181201
 H          2.8687813348        4.6088679241        1.1680853288
 H          5.1831426799        3.7505542959        1.2113349502
 H          5.6653398048        1.4846476152        0.2621309627
 H          3.8900115506       -2.4391660029        0.0554035509
 H          3.3097050662        0.1452179186        2.3860318271
 H          1.1227543152        0.5420091923        3.4859306839
 H         -0.8770121654       -0.6835730549        2.7217318743
 H         -1.5936312013       -2.9121193090        1.6483333710
 C         -0.8612848560       -3.6032814073       -0.2154891750
 C         -1.9162886635       -4.0322681091       -1.1896662137
 C         -0.6698565058       -3.3635179415       -1.6820926252
 H          0.0595167054       -3.9599173556       -2.2117639177
 H         -0.7306676454       -2.3459468544       -2.0356010111
 H         -2.0418565010       -5.0884587829       -1.3748950759
 H         -2.8408198941       -3.4740959592       -1.2080570841
 H         -0.2709480180       -4.3993202596        0.2293314871
