  62
        -98.93177431
 C         -2.7037420606       -0.8375560910        0.5561761099
 C         -2.3792347408       -0.1565174305       -0.6440373599
 C         -2.6245322011        1.2961666594       -0.6513395394
 C         -3.1120789612        1.8902361990        0.4518510108
 C         -3.3108040515        3.3679618389        0.6327439413
 C         -1.9521969416        4.0442501391        0.9090999414
 C         -1.4962622919        5.0136416195       -0.1811097883
 H         -2.0732756521        5.9373711494       -0.1005737079
 H         -0.4501280619        5.2561557997        0.0175066217
 C         -1.6228961619        4.5046895900       -1.6200204684
 H         -2.6561034320        4.6061773199       -1.9561556083
 H         -1.0240473621        5.1694363003       -2.2460866183
 C         -1.1688515216        3.0596219901       -1.8668888590
 H         -0.6621180917        3.0229859306       -2.8339769090
 H         -0.4345218815        2.7458695601       -1.1222889691
 C         -2.3144795214        2.0310926399       -1.9254780292
 H         -2.0383690013        1.2490682602       -2.6393100595
 H         -3.2211449615        2.5159115798       -2.2989096890
 H         -2.0015984217        4.5890428588        1.8532384016
 H         -1.1968596314        3.2645048392        1.0351326811
 H         -3.9833428815        3.5057933585        1.4796115814
 H         -3.7749745416        3.7894310191       -0.2559364185
 O         -3.4006669610        1.2057033785        1.5896111406
 C         -3.1805582907       -0.1595111214        1.6793949702
 O         -3.4359194005       -0.6452083419        2.7999380000
 O         -1.9061660808       -0.7203181101       -1.6641752401
 C         -2.4098393603       -2.3198344310        0.7326792894
 C         -1.0094682002       -2.5885030605        0.2370304592
 C         -0.6860690101       -3.5128783801       -0.7460214211
 C          0.6210329699       -3.6398317397       -1.1858956313
 C          1.6283157597       -2.8503839697       -0.6623670911
 C          1.3152449296       -1.9305091800        0.3279531192
 C          0.0122028296       -1.8182467905        0.7794692294
 H         -0.2286798805       -1.0863089008        1.5434900596
 N          2.3353622395       -1.0932120400        0.8469535394
 S          2.7640950991        0.2050371904       -0.1543913502
 O          2.1346942189        1.4086005601        0.3528253903
 O          2.5104111191       -0.1376537792       -1.5290293103
 C          4.5214268591        0.2788834107        0.1337329097
 C          5.3370039893       -0.5674077089       -0.5917076806
 C          6.6997638993       -0.5640152687       -0.3423000907
 C          7.2214894992        0.2796471711        0.6271103195
 C          6.3904749790        1.1246351707        1.3465768598
 C          5.0259998790        1.1246752005        1.1014787599
 H          4.3449768289        1.7702958302        1.6320733802
 H          6.7990001590        1.7814879006        2.0976534700
 H          8.2823976192        0.2798406313        0.8215064194
 H          7.3486944594       -1.2181652084       -0.9020503110
 H          4.8871329593       -1.1982747587       -1.3405891208
 H          2.0685731495       -0.6984644603        1.7398079696
 H          2.6421295597       -2.9207491293       -1.0205376312
 H          0.8538069300       -4.3545912594       -1.9606415915
 H         -1.4630774000       -4.1096831601       -1.1950083413
 H         -2.4174930802       -2.4795534513        1.8241055893
 C         -3.4577167501       -3.2567149110        0.1539443092
 C         -4.8857867902       -2.8217200313        0.0181728194
 C         -4.0549955803       -3.0584747207       -1.2053191507
 H         -4.2650112501       -3.9337278905       -1.8027265210
 H         -3.7212331905       -2.2082044204       -1.7778974505
 H         -5.6630523200       -3.5306443915        0.2608631792
 H         -5.1242536404       -1.8024282914        0.2862237498
 H         -3.2983743499       -4.2828298011        0.4708724888
