  62
        -98.93388707
 C         -2.4794152134       -1.2699592203        0.1259557769
 C         -3.3770000983       -0.6055546409        1.0013675645
 C         -4.3766957630        0.2828343017        0.3877491954
 C         -4.4004000751        0.4176866503       -0.9488111828
 C         -5.3489273140        1.2263903991       -1.7980513409
 C         -5.7198663267        2.6311377194       -1.3044059004
 C         -4.6031501096        3.3701422131       -0.5525675095
 H         -3.6569270939        2.8389927241       -0.6705622841
 H         -4.4764594055        4.3617910416       -0.9909594721
 C         -4.9042291347        3.5502056331        0.9372923194
 H         -4.2903065867        4.3675287669        1.3230882542
 H         -5.9496898262        3.8454271359        1.0497660275
 C         -4.6323650721        2.3281824414        1.8138198948
 H         -3.5548571458        2.1581039686        1.8897077194
 H         -4.9926243365        2.5502645699        2.8210871567
 C         -5.2777675161        1.0159815868        1.3392537503
 H         -6.2600967208        1.1925133186        0.9079636992
 H         -5.3904980627        0.3634974742        2.2092615508
 H         -6.0097968034        3.2073413598       -2.1847664595
 H         -6.5995410310        2.5722200004       -0.6651467959
 H         -4.8647625713        1.2973456915       -2.7751803781
 H         -6.2635561352        0.6420091041       -1.9349733824
 O         -3.5205834692       -0.2383348279       -1.7556467627
 C         -2.5389099147       -1.0831741247       -1.2542549493
 O         -1.8135486316       -1.5772506308       -2.1392060649
 O         -3.3534435241       -0.7640663185        2.2505801144
 C         -1.4638275080       -2.1959526401        0.7709638397
 C         -0.1465043824       -1.5032353905        1.0095650011
 C          0.4862866754       -1.5749099226        2.2448137517
 C          1.7101514070       -0.9602295330        2.4457535847
 C          2.3257334602       -0.2626226983        1.4221051975
 C          1.7009207250       -0.1833413832        0.1842327367
 C          0.4741959433       -0.7998119465       -0.0136918487
 H         -0.0004278290       -0.7472069361       -0.9830919324
 N          2.3191127606        0.5280083082       -0.8629781154
 S          3.8628046557        0.0216415400       -1.3032930413
 O          4.0265479396        0.4373464132       -2.6788326413
 O          4.0512736525       -1.3841376427       -1.0275888839
 C          4.9390023087        0.9954560164       -0.2720200279
 C          5.8346978505        0.3714129543        0.5740564015
 C          6.6660419299        1.1519170358        1.3625521715
 C          6.5876668665        2.5343217853        1.2905262157
 C          5.6845733748        3.1454038549        0.4331161329
 C          4.8516512038        2.3711877739       -0.3586922865
 H          4.1394580525        2.8046018852       -1.0409636040
 H          5.6268409045        4.2206367685        0.3794330701
 H          7.2344696982        3.1394953465        1.9059306039
 H          7.3692764395        0.6789430601        2.0289922832
 H          5.8555761982       -0.7063698462        0.5997872161
 H          1.7364959341        0.5968248007       -1.6860663920
 H          3.2783979020        0.2184024149        1.5720512212
 H          2.1900725552       -1.0239485643        3.4102113422
 H          0.0078544747       -2.1102169368        3.0518243880
 H         -1.8938757317       -2.4329189078        1.7570505316
 C         -1.3018566732       -3.5121431007        0.0208063624
 C         -0.0692732067       -3.8963651990       -0.7364614935
 C         -0.3935306982       -4.5789633651        0.5565881038
 H         -0.7279865836       -5.6049008412        0.5330495040
 H          0.2140322927       -4.3294011455        1.4133396432
 H         -0.2009474612       -4.4373812154       -1.6613918252
 H          0.7630424445       -3.2092904678       -0.7582022220
 H         -2.2422541465       -3.8470041214       -0.4061772900
