  62
        -98.93881357
 C          2.5787200001        0.1151358071       -0.4610913121
 C          2.2725671669        0.7875679557        0.7449083626
 C          1.7758271118        2.1687489967        0.6193853648
 C          1.6340081928        2.7095946258       -0.6026630161
 C          1.1890754355        4.1001351708       -0.9875242920
 C          0.0689134851        4.7570812759       -0.1751154785
 C         -1.0624191411        3.8123540729        0.2549635047
 H         -0.9757120078        2.8522968824       -0.2582819090
 H         -2.0194995605        4.2505698240       -0.0354157495
 C         -1.0929330177        3.5649243472        1.7643065981
 H         -2.0879152295        3.2070662800        2.0388497866
 H         -0.9253236875        4.5096898209        2.2871250552
 C         -0.0861399065        2.5285261432        2.2567516095
 H         -0.3372428821        1.5519704556        1.8321762652
 H         -0.1807202418        2.4469308303        3.3425331622
 C          1.3821350961        2.8298565584        1.9091656647
 H          2.0134076098        2.3777351977        2.6790951478
 H          1.5724794965        3.9003300554        1.8902854674
 H         -0.3398906048        5.5530443146       -0.8007805453
 H          0.4905219202        5.2370111702        0.7069821420
 H          2.0702712456        4.7497165735       -0.9687701935
 H          0.8770674751        4.0157220929       -2.0319535876
 O          1.9548832486        2.0260203643       -1.7410164814
 C          2.3970119331        0.7163674586       -1.7028425092
 O          2.6011242779        0.2067293760       -2.8265420116
 H          0.3713713290       -0.9999905104       -0.6796755374
 C          0.5838511658       -1.7969886577        0.0177654126
 C          1.9053744496       -2.1414805804        0.2720026785
 C          2.1586411042       -3.1931727426        1.1418690482
 C          1.1091515638       -3.8583776900        1.7544460187
 C         -0.2019930602       -3.4824737713        1.5310872473
 C         -0.4654801409       -2.4281897193        0.6609783220
 N         -1.7797500267       -1.9702936649        0.4701645636
 S         -2.1553678091       -0.8322170900       -0.7057639681
 O         -1.9299960037       -1.3755547600       -2.0297322065
 O         -1.4937649506        0.4081676448       -0.3954861421
 C         -3.9050951628       -0.6684864665       -0.4103050940
 C         -4.3327029771        0.2330309411        0.5455195079
 C         -5.6902015071        0.3478115496        0.7993538573
 C         -6.5925584611       -0.4377908352        0.0976066810
 C         -6.1491071296       -1.3367353534       -0.8607606771
 C         -4.7925398698       -1.4559782385       -1.1190585582
 H         -4.4028473648       -2.1307248882       -1.8643231481
 H         -6.8532621743       -1.9429451346       -1.4074731791
 H         -7.6486284225       -0.3458925598        0.2962196209
 H         -6.0385058259        1.0486169531        1.5407787033
 H         -3.5926888984        0.8268291747        1.0571112271
 H         -2.4898854900       -2.6798656315        0.5751758648
 H         -1.0149308194       -3.9864777718        2.0300990799
 H          1.3182463365       -4.6761163565        2.4274545988
 H          3.1753318909       -3.4875764644        1.3456051273
 C          2.9865983534       -1.3463857625       -0.4231987566
 H          3.0377000937       -1.6770271316       -1.4721307421
 C          4.3522377692       -1.5098595424        0.2110302816
 C          5.2615749367       -2.6192317125       -0.2224012504
 C          5.5693722364       -1.2042633027       -0.6073360081
 H          6.4000350230       -0.7060216457       -0.1307426775
 H          5.4106692557       -0.9045874884       -1.6334554535
 H          4.9057133423       -3.2856781439       -0.9937466693
 H          5.8868084293       -3.0930164471        0.5192650136
 H          4.3608364680       -1.2138321240        1.2535855213
 O          2.4144159734        0.2625082418        1.8804301590
