  62
        -98.93723305
 C          1.9861584973        0.5499317360        0.1781812237
 C          2.6766494160       -0.6838048649        0.2869483335
 C          4.0567481586       -0.7334825975       -0.2248272638
 C          4.5991295830        0.3770862599       -0.7576317439
 C          5.9515054054        0.6257655292       -1.3923176574
 C          7.0783845317       -0.3937031752       -1.2513342999
 C          7.6399440239       -0.5314271113        0.1635878844
 H          8.3545342825       -1.3573052528        0.1699885128
 H          8.1859114243        0.3826918212        0.4101227046
 C          6.6065666153       -0.7596651887        1.2638308700
 H          5.9376254421        0.1012182250        1.3237785990
 H          7.1398922305       -0.8195873984        2.2164964122
 C          5.7690043675       -2.0288610351        1.1213039357
 H          5.1883965139       -2.1457945606        2.0405496339
 H          6.4264577673       -2.8957701429        1.0300286037
 C          4.7779436304       -2.0397430928       -0.0550567387
 H          5.2674011530       -2.3319666461       -0.9811842472
 H          4.0089619801       -2.7881136770        0.1586313911
 H          7.8917355767       -0.0504377587       -1.8964234684
 H          6.7614099182       -1.3598282652       -1.6329065391
 H          6.2909154027        1.5910333424       -1.0032658179
 H          5.7526584455        0.7771501326       -2.4590163384
 O          3.8972112461        1.5425362386       -0.8422434471
 C          2.5936841264        1.6689418250       -0.3888362296
 O          2.1227262678        2.8103745648       -0.5567563932
 O          2.1562744158       -1.7144690829        0.7943682439
 C          0.5665897527        0.5855972828        0.7158156279
 C         -0.4580683663        0.4122766032       -0.3800775253
 C         -0.5267942114        1.2876123973       -1.4597287180
 C         -1.4798438479        1.1100554386       -2.4454230325
 C         -2.3968203157        0.0762028276       -2.3625643328
 C         -2.3424008640       -0.7976733924       -1.2844649032
 C         -1.3690943473       -0.6314511370       -0.3080310101
 H         -1.3347927642       -1.3271674952        0.5167057850
 N         -3.2719116135       -1.8493035092       -1.1540379341
 S         -4.2404674409       -1.8576580211        0.2128837666
 O         -3.4288819610       -2.0360753912        1.3883067704
 O         -5.2427316176       -2.8677804838       -0.0406919686
 C         -4.9960691127       -0.2410154370        0.2171438489
 C         -4.2828083626        0.8336043222        0.7108278853
 C         -4.8422598700        2.0992051160        0.6314464397
 C         -6.0967591783        2.2681646479        0.0658785068
 C         -6.8017857652        1.1780913117       -0.4215588446
 C         -6.2452421208       -0.0888124266       -0.3525372968
 H         -6.7573327310       -0.9646667455       -0.7171134939
 H         -7.7786444676        1.3118402383       -0.8576266981
 H         -6.5266058346        3.2555756694        0.0060874895
 H         -4.2916858615        2.9463504774        1.0077784751
 H         -3.3105532278        0.6697445988        1.1460324854
 H         -3.8481581958       -1.9835296129       -1.9735838683
 H         -3.1457294968       -0.0566033684       -3.1288427711
 H         -1.5162285785        1.7907840542       -3.2822474312
 H          0.1795781380        2.1009888307       -1.5210501566
 H          0.4901381073       -0.2881901593        1.3777496860
 C          0.2530321629        1.8267057370        1.5293877999
 C         -0.8183579865        1.7545254866        2.5743695586
 C          0.6205920981        1.8628946700        2.9806822992
 H          0.9729525503        2.7936250806        3.3989773590
 H          1.0997156526        0.9885253121        3.3971580220
 H         -1.4574546937        2.6118280850        2.7199462342
 H         -1.3120421394        0.8046734300        2.7233847751
 H          0.3536118623        2.7462603025        0.9679392297
