  62
        -98.94614596
 C         -1.8218144409       -1.0025600576       -0.2861951960
 C         -3.1794565858       -1.2949354236       -0.0138030992
 C         -4.1503302334       -0.2704176660       -0.4202268172
 C         -3.7106167553        0.8509933919       -1.0205666617
 C         -4.5845766524        1.9980055259       -1.4364790127
 C         -4.7051424919        3.0409713574       -0.3163788866
 C         -5.0587189749        2.4462412934        1.0467277416
 H         -4.2305583473        1.8212126162        1.3884011999
 H         -5.1465410216        3.2763358717        1.7509821108
 C         -6.3540928971        1.6228302253        1.0637257797
 H         -6.9584836267        1.8641458844        0.1885903799
 H         -6.9351179891        1.9014156607        1.9454233707
 C         -6.1422692777        0.1092439704        1.1304950465
 H         -5.4627264171       -0.1301629261        1.9523903729
 H         -7.1040766804       -0.3594401088        1.3552696973
 C         -5.6024095727       -0.5456912081       -0.1472357624
 H         -5.6833423996       -1.6297492785       -0.0241482753
 H         -6.2174851624       -0.2509400350       -0.9999478953
 H         -5.4641966475        3.7703455251       -0.6048421074
 H         -3.7496593982        3.5623135500       -0.2245085960
 H         -4.1385915692        2.4696332982       -2.3137218459
 H         -5.5696950770        1.6192476225       -1.7019218408
 O         -2.3992207268        1.0904451591       -1.2769828071
 C         -1.4213580517        0.1754446736       -0.9151802456
 O         -0.2610175768        0.5231192071       -1.2026329757
 H          2.0009191735       -1.9899995021       -0.1431898670
 C          1.6371406706       -1.4634693174        0.7224454709
 C          0.2792806081       -1.3786452510        0.9844653532
 C         -0.1379372168       -0.6892239587        2.1212328954
 C          0.7785237835       -0.0879085297        2.9608292987
 C          2.1331309841       -0.1548336915        2.6821084009
 C          2.5613629434       -0.8469289179        1.5568651250
 N          3.9329108866       -0.9615528108        1.2643700134
 S          4.5267081956       -0.5094820270       -0.2339178037
 O          3.8904553496       -1.2793449939       -1.2702094692
 O          5.9608264150       -0.6603860593       -0.1154268651
 C          4.1283779125        1.2231873524       -0.3831259571
 C          2.8360470626        1.6036438552       -0.6844567560
 C          2.5387443666        2.9572055178       -0.7385606135
 C          3.5256324526        3.8990972381       -0.4940433596
 C          4.8187629534        3.4984544259       -0.1919845895
 C          5.1233958914        2.1488444329       -0.1308489307
 H          6.1144955380        1.7905521679        0.0965070363
 H          5.5864356941        4.2316862738       -0.0035228935
 H          3.2849021194        4.9496447778       -0.5402199610
 H          1.5286883348        3.2543261651       -0.9727402726
 H          2.0727019510        0.8656653551       -0.8750079176
 H          4.5347509094       -0.5891771046        1.9857819375
 H          2.8516229438        0.3199071029        3.3330767865
 H          0.4377860642        0.4434766741        3.8366162646
 H         -1.1967659626       -0.6311352400        2.3348211859
 C         -0.7600704354       -2.0167756819        0.0975315193
 H         -1.2869444643       -2.7857801496        0.6822963527
 C         -0.1832120564       -2.6658898419       -1.1430215908
 C          0.3670444602       -4.0582177176       -1.0788643406
 C         -0.9277054995       -3.7955923904       -1.7860901140
 H         -0.9492599874       -3.8517231706       -2.8641711791
 H         -1.8443422185       -4.1169249688       -1.3132030156
 H          0.3309502760       -4.5662776392       -0.1269389307
 H          1.2399879287       -4.2921733759       -1.6698671470
 H          0.3088066783       -1.9562515772       -1.8000783076
 O         -3.5592377305       -2.3585738278        0.5459631118
