  62
        -98.93632134
 C         -2.4198887597       -0.0325001999       -0.4883667799
 C         -3.6396140996       -0.2950771804       -1.1631231298
 C         -4.8046606197       -0.5625687299       -0.3134362298
 C         -4.6568411798       -0.6084683490        1.0226697403
 C         -5.7429374499       -0.8958042584        2.0235974203
 C         -6.5852155200        0.3305136719        2.4015977994
 C         -7.5518705299        0.8157439911        1.3203996290
 H         -8.1587828598       -0.0217200191        0.9749360095
 H         -8.2258532500        1.5334486414        1.7922960585
 C         -6.8732399498        1.4918112503        0.1207923686
 H         -5.8517982898        1.7703749305        0.3905797286
 H         -7.4019310298        2.4156547302       -0.1244078620
 C         -6.8356034297        0.6406070595       -1.1485717708
 H         -7.8536823296        0.4670770592       -1.5039501808
 H         -6.3005576596        1.1992382590       -1.9210313011
 C         -6.1397371396       -0.7160586204       -0.9770903298
 H         -6.7732270397       -1.3951558400       -0.4068470294
 H         -5.9705109195       -1.1434218810       -1.9685456695
 H         -5.9117920501        1.1443349921        2.6803475190
 H         -7.1680519401        0.0641452624        3.2863520296
 H         -6.3943955599       -1.6821404086        1.6409796408
 H         -5.2458444700       -1.2634609178        2.9238780906
 O         -3.4571905299       -0.4153889286        1.6304395803
 C         -2.3135205998       -0.1079201690        0.9012978502
 O         -1.3015845699        0.0620289215        1.6056870302
 H          1.2760560503        1.0376922203       -0.3787195602
 C          1.1623929703       -0.0331532698       -0.4452135895
 C         -0.0310176896       -0.5743830401       -0.8940470393
 C         -0.1529645196       -1.9606741702       -0.9492076184
 C          0.8846290404       -2.7793524699       -0.5492434077
 C          2.0712297803       -2.2350444095       -0.0902219480
 C          2.2070689003       -0.8553198195       -0.0378511389
 N          3.4049835502       -0.2963788291        0.4408273609
 S          4.8490371803       -1.0050380094       -0.0720542185
 O          4.7891623504       -1.2796285204       -1.4905108883
 O          5.1325914302       -2.1368423789        0.7748485223
 C          6.0152202502        0.3015722708        0.2582362607
 C          6.4938991701        0.4578399717        1.5453225407
 C          7.3863678700        1.4851918419        1.8070254101
 C          7.7829551701        2.3338996712        0.7840538796
 C          7.2944230702        2.1639869204       -0.5026414004
 C          6.4003257103        1.1394948102       -0.7711602898
 H          6.0024856304        0.9636086695       -1.7577622197
 H          7.6069411303        2.8234879399       -1.2962128308
 H          8.4796078701        3.1310660414        0.9902397591
 H          7.7702495399        1.6194906826        2.8054313100
 H          6.1658125600       -0.2312814678        2.3058926411
 H          3.4268987902        0.7093841708        0.3449540402
 H          2.8912419003       -2.8607624893        0.2240603925
 H          0.7716863704       -3.8525838499       -0.5933633170
 H         -1.0807502095       -2.3891164004       -1.3047742182
 C         -1.2006574596        0.2657388795       -1.3419084000
 H         -1.4892641895       -0.0774496911       -2.3500863798
 C         -0.8759249697        1.7464003195       -1.4718758709
 C         -1.9512009997        2.7834114395       -1.3495266017
 C         -0.8873671598        2.6807126002       -0.3002002215
 H         -0.1376933998        3.4576792903       -0.2572406520
 H         -1.1474677299        2.2708398509        0.6629147487
 H         -1.9318195997        3.6255048591       -2.0249501923
 H         -2.9469828097        2.4440515896       -1.1037694016
 H         -0.1213014096        1.9276790190       -2.2316714810
 O         -3.7467500395       -0.3114831813       -2.4184113098
