  62
        -98.94506463
 C         -0.7472017050       -1.6025616341       -1.1159043419
 C         -2.0409012598       -1.8116982231       -0.5747314544
 C         -3.0053099351       -0.7214560965       -0.7452788685
 C         -2.6295578473        0.4031948049       -1.3792592382
 C         -3.4802362551        1.6242735500       -1.5999829878
 C         -3.5094884165        2.5705812400       -0.3915216413
 C         -4.3625963433        2.0932481868        0.7845364381
 H         -4.5011986819        2.9501359929        1.4471471046
 H         -5.3483375463        1.7950112258        0.4245704704
 C         -3.7347561256        0.9485032830        1.5922443822
 H         -3.8370603545        1.1610381595        2.6596314816
 H         -2.6623016995        0.9011708261        1.3855075051
 C         -4.3604841034       -0.4248697617        1.3458789485
 H         -3.7981904726       -1.1624550920        1.9244759825
 H         -5.3918817737       -0.4264630825        1.7075674373
 C         -4.3591092662       -0.8738185145       -0.1205250671
 H         -4.6208301885       -1.9347576323       -0.1515164941
 H         -5.1032489419       -0.3129389188       -0.6860917092
 H         -2.4854335782        2.7295830472       -0.0426258313
 H         -3.9018233853        3.5312223569       -0.7344301246
 H         -4.4975735511        1.3271396185       -1.8568259267
 H         -3.0484233093        2.1580689823       -2.4494518248
 O         -1.3957053309        0.5537810174       -1.9214853994
 C         -0.4123606708       -0.4210052903       -1.7789961441
 O          0.6728515647       -0.1062005430       -2.2995269149
 O         -2.3737876004       -2.8705240148        0.0251288311
 C          0.2904796632       -2.6713732653       -0.8152381446
 C          0.8938241182       -2.3705850211        0.5347250560
 C          1.0128245866       -3.3407910938        1.5218765766
 C          1.4974106517       -3.0080058393        2.7756062319
 C          1.8398508058       -1.7019868848        3.0777928854
 C          1.7263241049       -0.7255629226        2.0942073234
 C          1.2909114423       -1.0733975697        0.8263178815
 H          1.2191588826       -0.3114569052        0.0673757283
 N          2.0439163712        0.6165681717        2.3446524999
 S          1.1631207114        1.8197369965        1.5752190098
 O          1.3478466779        2.9853572895        2.4181627846
 O         -0.2091113650        1.4265146568        1.3536924664
 C          2.0090313610        2.1044160109        0.0371503091
 C          1.2890697695        2.6067191558       -1.0268325416
 C          1.9485179421        2.8824231164       -2.2132494525
 C          3.3105400390        2.6519197056       -2.3133826234
 C          4.0207615360        2.1494787104       -1.2340499267
 C          3.3678963532        1.8754237181       -0.0437410937
 H          3.8875939586        1.4776025539        0.8122406353
 H          5.0798692223        1.9654076592       -1.3182967320
 H          3.8198118907        2.8594669783       -3.2413693772
 H          1.3922936651        3.2617275959       -3.0553312634
 H          0.2253713162        2.7512358290       -0.9179466526
 H          2.2432846024        0.8463896498        3.3071153160
 H          2.1818929007       -1.4364881367        4.0664100561
 H          1.5848558058       -3.7695631793        3.5356282956
 H          0.6996703734       -4.3528782846        1.3117633639
 H         -0.2779561331       -3.6106276434       -0.7216453257
 C          1.3270316744       -2.8676753091       -1.9092698721
 C          2.7425543045       -2.3969067469       -1.7918215086
 C          2.4354711651       -3.8608179217       -1.7181322143
 H          2.7121684974       -4.4921427280       -2.5487166145
 H          2.5131005818       -4.3384943363       -0.7531105271
 H          3.2114338760       -2.0034016925       -2.6801537263
 H          3.0355784855       -1.8882729136       -0.8868467621
 H          0.8841812356       -2.8134300552       -2.8981570068
