  62
        -98.93810434
 C         -2.7208995828       -0.4807031828       -0.3565595302
 C         -2.9571819394        0.3988715902        0.7313703443
 C         -2.8775539620        1.8356399499        0.4461907564
 C         -2.5928003421        2.2392707531       -0.8046740628
 C         -2.4637904226        3.6701710503       -1.2387234844
 C         -1.0130900775        4.1614835743       -1.1494191970
 C         -0.3329183919        3.8647992843        0.1876178612
 H         -0.1782994875        2.7867308247        0.2843546475
 H          0.6612579432        4.3166967400        0.1501152841
 C         -1.0828805143        4.3937411277        1.4180249614
 H         -0.3569877522        4.8487205140        2.0953224084
 H         -1.7825049990        5.1752730594        1.1181106652
 C         -1.8277267608        3.3263916990        2.2225999082
 H         -1.1570583563        2.4840401720        2.4162944697
 H         -2.0992956214        3.7581092168        3.1899130501
 C         -3.1141481135        2.7845831701        1.5860763316
 H         -3.7494315032        3.6160806434        1.2735871864
 H         -3.6478763817        2.2096481730        2.3485416640
 H         -0.4326516120        3.6756934135       -1.9370281456
 H         -1.0044866837        5.2379922967       -1.3323855567
 H         -3.1062298021        4.2890550400       -0.6151520421
 H         -2.7979888237        3.7438833742       -2.2753398866
 O         -2.3647584725        1.3723538098       -1.8212803499
 C         -2.3759876408       -0.0038875459       -1.6213377699
 O         -2.0761294764       -0.6538444329       -2.6408884905
 O         -3.2362246381       -0.0094650318        1.8915016017
 C         -2.7555817919       -1.9656454400       -0.0339454410
 C         -1.4119864191       -2.3746438767        0.5151017610
 C         -1.2900869985       -3.1025030534        1.6920402765
 C         -0.0421649914       -3.3880706438        2.2204150341
 C          1.1074233976       -2.9398037853        1.5941971612
 C          0.9929310883       -2.2239522191        0.4119121997
 C         -0.2540869962       -1.9580459699       -0.1268585801
 H         -0.3287422771       -1.3871008315       -1.0424832263
 N          2.1671124883       -1.6872286502       -0.1932628858
 S          2.4605178675       -0.1436617115        0.4524773595
 O          2.4700580553       -0.2607401143        1.8886921050
 O          1.5341954808        0.8161225880       -0.1099544015
 C          4.1123382438        0.1720232523       -0.1379285233
 C          5.1481173944       -0.5556622224        0.4158988161
 C          6.4358192107       -0.3486653867       -0.0510837073
 C          6.6644941343        0.5765830487       -1.0591710532
 C          5.6144149069        1.2987727748       -1.6048845347
 C          4.3229958041        1.0948246568       -1.1432025160
 H          3.4758413841        1.6351813024       -1.5350902737
 H          5.7944007434        2.0182744268       -2.3874340874
 H          7.6676644236        0.7369364643       -1.4213379549
 H          7.2553223698       -0.9077591393        0.3707349978
 H          4.9216574653       -1.2577532043        1.2007697186
 H          2.0243598566       -1.5564446046       -1.1883078385
 H          2.0833677991       -3.1156753530        2.0151194322
 H          0.0341434876       -3.9465711147        3.1408160299
 H         -2.1832394981       -3.4178640841        2.2114978650
 H         -3.4869201773       -2.0636902730        0.7844869373
 C         -3.2303117129       -2.8432519863       -1.1809726427
 C         -2.3219303442       -3.7521628554       -1.9479849693
 C         -3.3216472613       -4.3290406955       -0.9940662387
 H         -4.1800533735       -4.8477246012       -1.3924938304
 H         -2.9468392427       -4.7362986932       -0.0672409697
 H         -2.4926879530       -3.8484836304       -3.0090846304
 H         -1.2790601546       -3.7802670857       -1.6728342164
 H         -4.0262495194       -2.3719489905       -1.7477064618
