  62
        -98.94501530
 C         -2.4587210028       -1.2248789319       -0.1029252907
 C         -3.4036529452       -0.6732813149        0.8018013401
 C         -4.1774397531        0.4759688538        0.3179743602
 C         -3.9612360944        0.9336059839       -0.9284232151
 C         -4.6297405872        2.1347435247       -1.5301815835
 C         -3.8083096216        3.4077271945       -1.2822700682
 C         -3.3769935901        3.5921752778        0.1729054523
 H         -2.6684161992        2.8031126193        0.4373335766
 H         -2.8346870198        4.5384613862        0.2324564826
 C         -4.5332077610        3.5994117098        1.1829451450
 H         -4.3762736993        4.4195319448        1.8865779249
 H         -5.4742786914        3.7910333453        0.6662554753
 C         -4.6606798761        2.3198919846        2.0118016226
 H         -3.6918398001        2.0725901073        2.4531465445
 H         -5.3551784167        2.5152146298        2.8330743048
 C         -5.1765857758        1.0864491255        1.2599461784
 H         -6.1000061886        1.3354758131        0.7335438164
 H         -5.3996968881        0.3143005952        2.0018175694
 H         -2.9085291101        3.3663855115       -1.9011525601
 H         -4.4002526076        4.2679789371       -1.6002529716
 H         -5.6246909434        2.2427216009       -1.1027521689
 H         -4.7203934528        1.9757040570       -2.6060226118
 O         -3.0620001102        0.3713659174       -1.7736741015
 C         -2.2759641153       -0.7036370709       -1.3837575337
 O         -1.4871096648       -1.0878589206       -2.2707107655
 O         -3.5915438385       -1.1263908704        1.9618779402
 C         -1.6107690464       -2.3823126241        0.4031832028
 C         -0.2377547996       -1.8497006203        0.7340428565
 C          0.0670952885       -1.4674558173        2.0365276939
 C          1.2935787821       -0.9033253969        2.3376078678
 C          2.2361824264       -0.6979078486        1.3455177273
 C          1.9349293200       -1.0623846383        0.0402458294
 C          0.7145227056       -1.6518341437       -0.2553716902
 H          0.4828137844       -1.9096365764       -1.2773259867
 N          2.8771317936       -0.8243693208       -0.9808872163
 S          3.3845059360        0.7705185623       -1.1566409936
 O          2.3797024710        1.7033014538       -0.6984666775
 O          3.7979108289        0.8937818382       -2.5377578118
 C          4.8267781854        0.8656584028       -0.1153421169
 C          4.8972381518        1.8188505773        0.8815559287
 C          6.0335245100        1.8770858277        1.6737681154
 C          7.0733603106        0.9863518214        1.4556560413
 C          6.9877903352        0.0362015440        0.4487102649
 C          5.8555070906       -0.0264357972       -0.3475922115
 H          5.7493188760       -0.7456210335       -1.1423865408
 H          7.7982844577       -0.6548837988        0.2823370860
 H          7.9556902491        1.0332191785        2.0741598623
 H          6.1014144390        2.6151609504        2.4567926798
 H          4.0606114964        2.4855799406        1.0178989749
 H          2.5759251453       -1.1817842567       -1.8773981479
 H          3.1895687653       -0.2477610804        1.5695591280
 H          1.5165248698       -0.6149910925        3.3535925069
 H         -0.6784482056       -1.5983077108        2.8079093789
 H         -2.0860509973       -2.6962493881        1.3419702182
 C         -1.5811347287       -3.5653957789       -0.5415189339
 C         -1.0942285230       -4.8873142057       -0.0302432179
 C         -2.5480902574       -4.6909272413       -0.3347047319
 H         -2.9649179159       -5.1762628368       -1.2044625379
 H         -3.2376459184       -4.6122772088        0.4929619845
 H         -0.5099053361       -5.5111020036       -0.6890109051
 H         -0.7964084680       -4.9401523319        1.0059587059
 H         -1.3463009864       -3.3011280967       -1.5644349461
