  62
        -98.93029119
 C          2.1646416582        0.7093018007        0.3101347786
 C          2.7008129433       -0.3619472758        1.0662332903
 C          3.5606734634       -1.3210521680        0.3515621069
 C          3.7493803978       -1.1750178363       -0.9728411362
 C          4.5389998010       -2.0046646220       -1.9635922292
 C          5.5736437425       -3.0194479797       -1.4832360925
 C          6.7956016082       -2.4128470950       -0.7943592651
 H          7.3809714836       -1.8687625395       -1.5399060725
 H          7.4148040530       -3.2298483892       -0.4174354754
 C          6.4975264623       -1.4476374722        0.3504356221
 H          5.9741628937       -0.5706107441       -0.0364633752
 H          7.4533980693       -1.0991506492        0.7510538864
 C          5.6945917141       -2.0351249768        1.5097820668
 H          5.6986127661       -1.2989393343        2.3183476169
 H          6.1870009323       -2.9371780989        1.8778824537
 C          4.2254016395       -2.3694442467        1.1961950989
 H          3.6755267211       -2.3961508629        2.1414584949
 H          4.1316271966       -3.3500666912        0.7359274318
 H          5.9262942587       -3.5473280671       -2.3735234691
 H          5.1058421187       -3.7613576693       -0.8428237175
 H          5.0265756088       -1.2850330365       -2.6289439046
 H          3.7949055118       -2.5301856204       -2.5723513836
 O          3.1414572980       -0.1761718666       -1.6758251470
 C          2.3524976292        0.7925561913       -1.0693822150
 O          1.8972245645        1.6344253735       -1.8636784637
 O          2.4666203950       -0.5178125670        2.2950505731
 C          1.3241820205        1.7369504860        1.0461092511
 C          0.0329626990        1.9914631143        0.3105689370
 C         -0.2677216977        3.1960965404       -0.3099213335
 C         -1.4695108543        3.3575636776       -0.9767131842
 C         -2.3932916932        2.3311222525       -1.0366274029
 C         -2.1061974298        1.1231460919       -0.4137071614
 C         -0.9029788466        0.9653761318        0.2584587693
 H         -0.6743879152        0.0229165486        0.7415401669
 N         -3.0338240060        0.0659269845       -0.4810716111
 S         -4.6625792857        0.4597677087       -0.2606290187
 O         -5.1901053417        0.9405965079       -1.5129288493
 O         -4.8086230842        1.3505435320        0.8688867791
 C         -5.3624629687       -1.1360335201        0.1115312275
 C         -5.6840361324       -1.9815549901       -0.9333329184
 C         -6.2133079959       -3.2295497840       -0.6457317371
 C         -6.4112074824       -3.6090286889        0.6736666201
 C         -6.0846775634       -2.7490664182        1.7114711011
 C         -5.5534019941       -1.4999579307        1.4310250168
 H         -5.2945382081       -0.7957091981        2.2054748801
 H         -6.2425900844       -3.0456477466        2.7359181023
 H         -6.8257488527       -4.5798810293        0.8947515158
 H         -6.4712085829       -3.8999634882       -1.4496053757
 H         -5.5230614987       -1.6397291209       -1.9424137582
 H         -2.7649947606       -0.7142517456        0.1028207408
 H         -3.3325913409        2.4486232521       -1.5527030583
 H         -1.6891180817        4.2966839480       -1.4623333511
 H          0.4490312901        4.0004150575       -0.2923172653
 H          1.0755244918        1.2481352035        2.0030473945
 C          2.0730822671        3.0134777403        1.3993976405
 C          3.5382612048        2.9801067919        1.7131202915
 C          3.0534657300        3.6625497694        0.4710281504
 H          3.0846768971        4.7418519237        0.4351639306
 H          3.2311130495        3.1908107661       -0.4826093568
 H          3.9043726469        3.5875654735        2.5270441202
 H          4.0489788600        2.0336762845        1.6100035564
 H          1.4663664068        3.6786525789        2.0066485657
