  62
        -98.94445252
 C         -1.4990520902       -1.4537142849        0.5196773418
 C         -1.5951624114       -0.1625068974        1.0981293003
 C         -2.7621775185        0.6375367576        0.7047973663
 C         -3.6517964937        0.1183440331       -0.1608994933
 C         -4.8643378351        0.8345645406       -0.6800079869
 C         -4.5535672953        1.5788225496       -1.9858826175
 C         -3.2972296239        2.4467304233       -1.9145756090
 H         -2.4237065942        1.8008821215       -1.7971131815
 H         -3.1958674547        2.9517326777       -2.8776183970
 C         -3.3127508697        3.4887252334       -0.7877524698
 H         -2.9600468669        4.4412344381       -1.1882244035
 H         -4.3350419973        3.6428545370       -0.4405699017
 C         -2.4158721397        3.1475110994        0.4035581051
 H         -2.3315045421        4.0405288811        1.0275899656
 H         -1.4137575686        2.8968765209        0.0477233220
 C         -2.9010541098        2.0073262373        1.3072956996
 H         -2.2727603178        2.0042649508        2.2025430027
 H         -3.9337322086        2.1899383094        1.6117303098
 H         -5.4139956117        2.1996959782       -2.2424158035
 H         -4.4173760662        0.8416521477       -2.7806028562
 H         -5.2176526557        1.5342288921        0.0748770278
 H         -5.6441915935        0.0951726868       -0.8703713442
 O         -3.5195796342       -1.1170670803       -0.7053184973
 C         -2.4327392659       -1.9258161291       -0.4030565699
 O         -2.4324098541       -3.0146437942       -1.0075048094
 O         -0.7480061485        0.2954939900        1.9101217450
 C         -0.2919793768       -2.3039673973        0.8825910258
 C          0.6646934314       -2.2766313896       -0.2837508963
 C          0.7667025806       -3.3042212951       -1.2128096233
 C          1.6290551643       -3.1859292509       -2.2887197427
 C          2.4171083527       -2.0601714482       -2.4459948749
 C          2.3235741725       -1.0269572956       -1.5199794673
 C          1.4427705773       -1.1379373975       -0.4564418777
 H          1.3585650630       -0.3288761894        0.2543862333
 N          3.1022527425        0.1341635810       -1.6466670966
 S          3.8312561087        0.7729439650       -0.2773591377
 O          4.9616164849        1.5196155761       -0.7904020796
 O          4.1409176803       -0.2605740673        0.6832315577
 C          2.6525398766        1.9239782710        0.3917076712
 C          2.1693189533        2.9188149332       -0.4354212773
 C          1.2934736015        3.8547077117        0.0887720838
 C          0.9207327932        3.7816349142        1.4230360418
 C          1.4115359203        2.7750834691        2.2381925537
 C          2.2888561805        1.8365304074        1.7197772604
 H          2.6886868183        1.0335903886        2.3187245827
 H          1.1098567791        2.7092782243        3.2707903380
 H          0.2390377111        4.5118584568        1.8296044957
 H          0.9020205487        4.6369005984       -0.5420399655
 H          2.4873124035        2.9444789013       -1.4646146219
 H          3.7397634583        0.1285234920       -2.4300886355
 H          3.0983901372       -1.9772065632       -3.2795655405
 H          1.6960187978       -3.9869111311       -3.0095973295
 H          0.1562105166       -4.1852651292       -1.1038033366
 H          0.1909969441       -1.7785759319        1.7184507956
 C         -0.6658394950       -3.6970255063        1.3393099157
 C          0.3587791899       -4.5267547365        2.0518597089
 C         -0.8113317501       -3.9709854677        2.8049605128
 H         -1.5870360320       -4.6494858099        3.1269153654
 H         -0.6368373294       -3.1521647672        3.4876391146
 H          0.3895358160       -5.5881354639        1.8587735569
 H          1.3288170555       -4.0823384979        2.2192048417
 H         -1.3531708763       -4.2013647994        0.6719538636
