  62
        -98.93388951
 C          1.9217689804        1.5176152354        0.4467073368
 C          1.8015588030        0.5891046790       -0.6166293627
 C          2.5902184117       -0.6497777630       -0.4822393003
 C          3.2969297750       -0.8646050448        0.6411984542
 C          4.0746349316       -2.1094736143        0.9606479254
 C          3.1127378935       -3.2428572614        1.3712232393
 C          3.0918663154       -4.4288951947        0.4071491990
 H          3.9969533878       -5.0220053026        0.5543112403
 H          2.2396193440       -5.0554243714        0.6777801893
 C          2.9993510423       -4.0733485132       -1.0794728207
 H          2.7350723773       -4.9906898995       -1.6096275840
 H          3.9820838625       -3.7751365173       -1.4478443208
 C          1.9840341424       -2.9827514995       -1.4439763631
 H          1.1968213785       -2.9204921907       -0.6927069008
 H          1.5090931362       -3.2659741460       -2.3849630679
 C          2.5881844666       -1.5839280766       -1.6609661673
 H          3.6074502193       -1.6818751241       -2.0458815870
 H          1.9966051620       -1.0667430748       -2.4222020356
 H          3.3860676950       -3.6105652863        2.3614934729
 H          2.1073953507       -2.8249263647        1.4574971634
 H          4.6670625503       -2.4036962424        0.0969869603
 H          4.7511963087       -1.8682874110        1.7809526524
 O          3.3163979463        0.0138672667        1.6784524705
 C          2.6453635495        1.2230111705        1.6042779619
 O          2.7557845445        1.9323742910        2.6249614893
 O          1.0849785463        0.7723162156       -1.6326045880
 C          1.2147076262        2.8620219892        0.4167706473
 C         -0.2163276429        2.6871325905       -0.0276439102
 C         -0.7413395701        3.2537174682       -1.1807193893
 C         -2.0670812065        3.0453100556       -1.5197775764
 C         -2.8967029025        2.2819311470       -0.7192512470
 C         -2.3792055591        1.7028865234        0.4338978504
 C         -1.0495898265        1.9108665473        0.7693463838
 H         -0.6442927100        1.4612216939        1.6682619946
 N         -3.2092675829        0.9468448649        1.2817219255
 S         -4.2043571032       -0.2647969897        0.7095640791
 O         -5.1125936573        0.2849231749       -0.2645841961
 O         -4.8042594972       -0.8390983236        1.8921420096
 C         -3.1477352796       -1.4764630542       -0.0642018435
 C         -2.9468639527       -2.6830114103        0.5770307499
 C         -2.1403664554       -3.6365275349       -0.0225676739
 C         -1.5425588384       -3.3636264316       -1.2433333733
 C         -1.7389449787       -2.1402170093       -1.8656796556
 C         -2.5523862488       -1.1857763922       -1.2761152557
 H         -2.7272629797       -0.2295944627       -1.7413699434
 H         -1.2592303025       -1.9198819486       -2.8056340558
 H         -0.9212201520       -4.1093206721       -1.7133923443
 H         -1.9821766573       -4.5870659167        0.4613518214
 H         -3.4367974544       -2.8532484754        1.5223062138
 H         -2.7518094189        0.6403131546        2.1277229284
 H         -3.9307502192        2.1156092828       -0.9745816608
 H         -2.4628994194        3.4869558791       -2.4219616535
 H         -0.1076350196        3.8381822799       -1.8268677624
 H          1.1975550590        3.1965165221        1.4674615601
 C          1.9591819653        3.9361446827       -0.3626536673
 C          3.4566546682        3.9379396765       -0.4290366402
 C          2.6522485192        3.6592521786       -1.6613459608
 H          2.6179881273        4.4169201786       -2.4306262745
 H          2.6225732782        2.6505454195       -2.0408685338
 H          3.9725571432        4.8831029061       -0.3503942121
 H          3.9789611437        3.1165581081        0.0402024443
 H          1.4842175103        4.9072805846       -0.2610611733
