  62
        -98.94627698
 C         -1.5374198147       -1.4659375669       -0.0813886691
 C         -1.5127980510       -0.1069273920        0.3165061048
 C         -2.8084670958        0.4608678705        0.7104658187
 C         -3.9080263867       -0.3140373917        0.7080159598
 C         -5.2945402674        0.1180877541        1.1024694317
 C         -6.0744700305        0.8156451961       -0.0206312746
 C         -5.6053801787        2.2316940598       -0.3577970471
 H         -6.3706242490        2.6782104237       -0.9960072419
 H         -5.5583855450        2.8243874879        0.5562305463
 C         -4.2557169728        2.2949376041       -1.0866639309
 H         -4.0174376483        1.3104514350       -1.4959088077
 H         -4.3315328777        2.9826086310       -1.9320647441
 C         -3.0874010032        2.7663533287       -0.2205263552
 H         -3.2506992149        3.8038178401        0.0793918086
 H         -2.1771088304        2.7240041323       -0.8231517487
 C         -2.8565895535        1.9222526246        1.0392980795
 H         -1.8870769999        2.1946530860        1.4633774155
 H         -3.6337333932        2.1231723482        1.7762452995
 H         -6.0278194809        0.1929975968       -0.9171650686
 H         -7.1198243142        0.8671730942        0.2928400553
 H         -5.8348619916       -0.7881331371        1.3847564783
 H         -5.2404509692        0.7746631944        1.9713519023
 O         -3.8796882516       -1.6279915727        0.3551002319
 C         -2.7029214128       -2.2297804999       -0.0644595821
 O         -2.8221942873       -3.4320417592       -0.3787208017
 H          2.3092899361       -1.0987892873       -0.7862718425
 C          2.0526280402       -1.3873478692        0.2181767288
 C          0.8163332191       -1.9438218149        0.5016571268
 C          0.5468747621       -2.3391111074        1.8099734157
 C          1.4831273728       -2.1591784779        2.8088823497
 C          2.7032274625       -1.5678757298        2.5292821263
 C          2.9862143437       -1.1821837299        1.2252306725
 N          4.2163683027       -0.5934071369        0.9056793858
 S          4.3457768820        0.5148640256       -0.3354305375
 O          4.3353179929       -0.1640603475       -1.6078847837
 O          5.5616616278        1.2401052295       -0.0282816933
 C          2.9503689647        1.6182672898       -0.2130612213
 C          2.1800551901        1.8605279234       -1.3306252198
 C          1.1267278980        2.7543351261       -1.2389929430
 C          0.8609148013        3.3853425402       -0.0355189090
 C          1.6431404293        3.1304642529        1.0789318402
 C          2.7004868282        2.2412102798        0.9923484809
 H          3.3278429893        2.0278663481        1.8429202800
 H          1.4269594985        3.6172129240        2.0167148526
 H          0.0333559381        4.0738349174        0.0361846333
 H          0.5110836994        2.9469276368       -2.1039589456
 H          2.4151659971        1.3410944618       -2.2467500512
 H          4.7999939419       -0.3538516515        1.6928877902
 H          3.4297894978       -1.4104292848        3.3116363106
 H          1.2582026081       -2.4691594866        3.8184153483
 H         -0.4146601518       -2.7823020420        2.0326542057
 C         -0.2518927114       -2.1247526702       -0.5481826620
 H         -0.4688632963       -3.1981561333       -0.6472269084
 C          0.1416321386       -1.5749395792       -1.9035554577
 C          0.9875888291       -2.3900887568       -2.8333878136
 C         -0.4619796362       -2.1647675271       -3.1407575861
 H         -0.7213428321       -1.5040446420       -3.9544173693
 H         -1.1474281749       -2.9902256033       -3.0135701819
 H          1.2886450594       -3.3725260181       -2.5019165211
 H          1.7314511728       -1.8856524450       -3.4322443509
 H          0.2937157404       -0.5011470439       -1.8854349052
 O         -0.4699217956        0.5929168758        0.3443719057
