  62
        -98.94538290
 C         -1.5971257787       -1.4148023227       -0.3506285864
 C         -2.8803743417       -1.3596689662        0.2504517112
 C         -3.7708076575       -0.2917835843       -0.2208642847
 C         -3.3430025170        0.5424318318       -1.1858872807
 C         -4.1153162776        1.7177586876       -1.7094708154
 C         -3.7781147013        2.9941052905       -0.9254396490
 C         -3.8343258061        2.8192656863        0.5922774577
 H         -3.0470892214        2.1282748964        0.9028675802
 H         -3.6060614764        3.7887374742        1.0401243924
 C         -5.1857115939        2.3184180749        1.1213942902
 H         -5.4596257792        2.9102359208        1.9973232560
 H         -5.9597598041        2.4766328409        0.3695227561
 C         -5.1952980828        0.8515421518        1.5561383066
 H         -4.3641031130        0.6672742018        2.2414362189
 H         -6.1209138673        0.6667413243        2.1077634837
 C         -5.1235625501       -0.1815230161        0.4241041801
 H         -5.3316095865       -1.1643120379        0.8570146346
 H         -5.8912024870        0.0341618716       -0.3216620095
 H         -2.7689609144        3.3114086402       -1.1979256644
 H         -4.4728430873        3.7791676711       -1.2292781627
 H         -3.8510080192        1.8643077585       -2.7581311974
 H         -5.1805292281        1.5065721331       -1.6401810335
 O         -2.1197887340        0.4386907689       -1.7626742785
 C         -1.2104262620       -0.5262930228       -1.3524144945
 O         -0.1223444385       -0.4801249550       -1.9572494483
 O         -3.2590146692       -2.1622893156        1.1448335854
 C         -0.6119038974       -2.4522632917        0.1644322549
 C          0.4197773580       -1.7421866280        1.0085752139
 C          0.0293188011       -1.2666176605        2.2594203474
 C          0.9195738049       -0.5921970076        3.0708679015
 C          2.2187814778       -0.3711602862        2.6471793865
 C          2.6183494837       -0.8361171633        1.4007539065
 C          1.7221360826       -1.5201857380        0.5876423545
 H          2.0560322077       -1.8583822745       -0.3790998678
 N          3.9415729627       -0.6376505196        0.9603894992
 S          4.2040368294        0.1527980193       -0.4943256795
 O          3.7604513073       -0.6683637193       -1.5886287442
 O          5.6137485260        0.4824247621       -0.4744085376
 C          3.2398015284        1.6458471604       -0.3504874649
 C          3.8285328108        2.7471940504        0.2417441936
 C          3.0689451208        3.8872108686        0.4450952850
 C          1.7347127981        3.9032196329        0.0658054299
 C          1.1611776672        2.7893089738       -0.5262123174
 C          1.9162717817        1.6456905683       -0.7390301912
 H          1.4894307843        0.7705526169       -1.2044127490
 H          0.1247070700        2.7921192543       -0.8271596528
 H          1.1390853261        4.7876069850        0.2292698120
 H          3.5151519517        4.7567002310        0.9003738715
 H          4.8699542470        2.6927761851        0.5155580890
 H          4.5425152335       -0.2360194723        1.6672346491
 H          2.9204972405        0.1527736538        3.2784177565
 H          0.6025659850       -0.2344240024        4.0386149424
 H         -0.9877510911       -1.4379545650        2.5837111787
 H         -1.2005880969       -3.0969512259        0.8328416239
 C         -0.0262063486       -3.3089047785       -0.9353764002
 C          0.6096117803       -4.6182046644       -0.5788352750
 C         -0.7046856843       -4.5944751887       -1.2982183919
 H         -0.7309866962       -4.8868987144       -2.3372706350
 H         -1.5934704125       -4.8641338915       -0.7463268823
 H          1.4901161861       -4.9269141094       -1.1216318186
 H          0.6124119374       -4.9036518256        0.4624329178
 H          0.4135612709       -2.7375554545       -1.7437654440
