  62
        -98.94266957
 C          1.2523695295        1.5546389884        0.5681117811
 C          2.2002046667        1.2363638479       -0.4317720271
 C          3.1717633290        0.1786671686       -0.0984631425
 C          3.0932977877       -0.4295310422        1.0977793205
 C          3.9018703606       -1.5988829738        1.5864476720
 C          3.1674158001       -2.9162855699        1.2785092790
 C          3.4841272541       -3.5232996298       -0.0867415616
 H          2.8243951938       -4.3844963735       -0.2163810240
 H          4.5136189672       -3.8891144384       -0.0917881114
 C          3.2874693277       -2.5770585535       -1.2737355959
 H          2.3577056087       -2.0193415468       -1.1387834726
 H          3.1647891492       -3.1870994730       -2.1712956497
 C          4.4673767803       -1.6157815284       -1.4821967561
 H          4.7857748611       -1.6587765149       -2.5259271397
 H          5.3129782580       -1.9596845187       -0.8862994884
 C          4.1802645909       -0.1400834036       -1.1681221455
 H          3.7915466791        0.3515017156       -2.0656582698
 H          5.1224153219        0.3596605922       -0.9184419455
 H          2.0909109044       -2.7321336826        1.3440831749
 H          3.4227481280       -3.6508513014        2.0454375888
 H          4.8974277601       -1.5923548380        1.1525568273
 H          3.9874753263       -1.4910892942        2.6697698224
 O          2.1727973968       -0.0826342063        2.0384969959
 C          1.2166013859        0.8832530725        1.7887464593
 O          0.3983276283        1.0528724402        2.7173052556
 H         -0.4161572491       -0.0151732727       -0.2244311187
 C         -0.9293279880        0.6330350160       -0.9160360170
 C         -0.7395212855        2.0046804108       -0.8353625195
 C         -1.3909038520        2.8147408734       -1.7575009135
 C         -2.1933165399        2.2517039795       -2.7355087406
 C         -2.3759846818        0.8822061947       -2.8114313993
 C         -1.7307214107        0.0639704397       -1.8911230498
 N         -1.8591888326       -1.3311384907       -1.9316445196
 S         -1.7977775240       -2.2391948576       -0.5304298771
 O         -0.4641807891       -2.2534015198        0.0153989345
 O         -2.3304006165       -3.5258074697       -0.9259846838
 C         -2.9458499101       -1.4402070858        0.5766417275
 C         -2.5059379895       -0.6889191253        1.6464812186
 C         -3.4425924908       -0.0493798950        2.4447256251
 C         -4.7938049445       -0.1715103238        2.1638942074
 C         -5.2214054683       -0.9373628571        1.0892140264
 C         -4.2909401489       -1.5747150503        0.2864409023
 H         -4.5820095354       -2.1900179457       -0.5493380274
 H         -6.2733461450       -1.0366004130        0.8755635891
 H         -5.5159901389        0.3304024317        2.7882196355
 H         -3.0981731010        0.5429817796        3.2776136089
 H         -1.4505001057       -0.6017999863        1.8535311702
 H         -2.5346974328       -1.6878890636       -2.5902789981
 H         -2.9978902012        0.4488951985       -3.5793852317
 H         -2.6875680941        2.8911265840       -3.4510217486
 H         -1.2626772725        3.8841141953       -1.7159382759
 C          0.1382590288        2.5412449552        0.2732545324
 H         -0.4732184468        2.5892595151        1.1875236541
 C          0.6895883966        3.9219503961       -0.0161019089
 C         -0.0816891256        5.1442309132        0.3798719626
 C          1.1590356931        4.7659129254        1.1296463656
 H          2.0479849927        5.3644161821        0.9992347796
 H          1.0526585333        4.3544245504        2.1231923153
 H         -1.0312820236        5.0008565451        0.8731351607
 H         -0.0432579236        6.0089102949       -0.2654663742
 H          1.2692207561        3.9536015437       -0.9309879293
 O          2.2245546733        1.7921019725       -1.5618150013
