  62
        -98.94637115
 C          1.7933331388        0.7310885691        0.2621286890
 C          3.0967890602        0.9772359559        0.7561440128
 C          4.0143976916       -0.1672217121        0.7320448346
 C          3.5814421145       -1.3608445690        0.2864350239
 C          4.3912209432       -2.6274098911        0.2228331442
 C          5.2597108437       -2.7495732780       -1.0367816407
 C          6.4831651833       -1.8330000668       -1.0754770358
 H          7.0570264196       -1.9552254981       -0.1563222993
 H          7.1126099991       -2.1739821772       -1.8999199147
 C          6.1561359095       -0.3480647981       -1.2869122723
 H          5.1380475946       -0.2497146949       -1.6709366273
 H          6.8241985507        0.0677147565       -2.0446078723
 C          6.2980785261        0.5174298806       -0.0347357633
 H          6.0070988978        1.5395302130       -0.2905457243
 H          7.3431621798        0.5347417973        0.2823611232
 C          5.4356946585        0.0613471973        1.1495172078
 H          5.8535082067       -0.8420964779        1.5930887448
 H          5.4381409022        0.8547850761        1.9009541219
 H          5.6061471872       -3.7840208020       -1.0945732883
 H          4.6344901974       -2.5593301322       -1.9122558198
 H          5.0211950251       -2.7051155186        1.1093210925
 H          3.6771182896       -3.4535640156        0.2293992188
 O          2.3105382313       -1.5631003399       -0.1525252604
 C          1.3936669186       -0.5226106924       -0.1982151763
 O          0.2789292323       -0.8421889079       -0.6517694300
 O          3.4708862567        2.0947927256        1.2020757117
 C          0.7969966363        1.8748812398        0.2155739810
 C         -0.4548984195        1.5107802263        0.9729017180
 C         -0.3382065569        1.0808502461        2.2932707352
 C         -1.4557996060        0.7364058913        3.0272445736
 C         -2.7161563911        0.8058770507        2.4580118710
 C         -2.8448126082        1.2392476722        1.1451230312
 C         -1.7196495256        1.5993461466        0.4140821556
 H         -1.8537951483        1.9256869574       -0.6030385401
 N         -4.1136972135        1.3464163669        0.5434395143
 S         -4.4315980609        0.5087759329       -0.8717033990
 O         -3.5243840907        0.9281754978       -1.9069244482
 O         -5.8381080535        0.7382948022       -1.1230521983
 C         -4.1809212397       -1.2054373316       -0.4464114628
 C         -5.2874624562       -1.9699202066       -0.1274521254
 C         -5.1062985008       -3.2863920595        0.2624057400
 C         -3.8248194102       -3.8120995685        0.3359833188
 C         -2.7261698164       -3.0293895405        0.0178315749
 C         -2.8984054106       -1.7111473410       -0.3775900845
 H         -2.0491405969       -1.0948504718       -0.6279494223
 H         -1.7245935873       -3.4259576501        0.0725731226
 H         -3.6805358872       -4.8365205482        0.6417668017
 H         -5.9604417952       -3.8965055263        0.5086431210
 H         -6.2641963832       -1.5197810710       -0.2034811319
 H         -4.8794414750        1.2041291521        1.1877477761
 H         -3.5915289778        0.5311711389        3.0269467427
 H         -1.3470597766        0.4050316098        4.0488771415
 H          0.6474552479        1.0192948706        2.7345676476
 H          1.2856675365        2.7093618088        0.7406986689
 C          0.5423811712        2.2898180486       -1.2183163451
 C          0.1359769300        3.6971685931       -1.5339511300
 C          1.5099574113        3.2159952057       -1.8892655426
 H          1.7473434545        3.0498150514       -2.9294637662
 H          2.3444731668        3.5703658523       -1.3017338335
 H         -0.5755516186        3.8592224457       -2.3298435398
 H          0.0373689240        4.3856416101       -0.7082713409
 H          0.1176338271        1.4922589769       -1.8191323092
