  62
        -98.94043379
 C         -1.7630150697       -1.1004545804       -0.6845246607
 C         -1.8856305901       -0.3212969403        0.4928882892
 C         -3.2628866502       -0.0468606603        0.9360104188
 C         -4.2973053600       -0.5717920705        0.2561140686
 C         -5.7445729801       -0.3220945006        0.5643198282
 C         -6.2760016100        0.8900386593       -0.2136952521
 C         -5.3882192101        2.1300996894       -0.1080626720
 H         -4.4347769900        1.9290964894       -0.6018687217
 H         -5.8779758201        2.9287392592       -0.6693901822
 C         -5.1243293605        2.6017875196        1.3287325580
 H         -5.8638658307        2.1678118996        2.0026538079
 H         -5.2464708706        3.6862096995        1.3690057279
 C         -3.7198402806        2.2915103497        1.8498523184
 H         -2.9766198905        2.6450930597        1.1308851186
 H         -3.5704029309        2.8509021599        2.7770877684
 C         -3.4325969406        0.8159086298        2.1548414987
 H         -2.4799384207        0.7652775100        2.6902603489
 H         -4.2135530307        0.4156012298        2.8045049385
 H         -7.2767497701        1.1240909492        0.1539477077
 H         -6.3574469797        0.6158017691       -1.2681700721
 H         -6.3153410599       -1.2065619407        0.2762382082
 H         -5.8604218904       -0.1598737505        1.6341995282
 O         -4.1378265096       -1.3663218406       -0.8335608813
 C         -2.8753603495       -1.6475157506       -1.3292224009
 O         -2.8739912392       -2.3941499307       -2.3286479308
 H          1.9853286102       -0.3348841900       -0.4327160998
 C          1.7126609701       -1.2199115700        0.1164260602
 C          0.5340280803       -1.8867228901       -0.1739272800
 C          0.2006287202       -3.0118193001        0.5765041400
 C          1.0236444699       -3.4511156299        1.5943205403
 C          2.2063982898       -2.7888142697        1.8739281105
 C          2.5483743299       -1.6661672798        1.1309239705
 N          3.7242953198       -0.9570995596        1.4076591007
 S          4.5912123000       -0.2224438797        0.1871769108
 O          4.5520739304       -0.9908521599       -1.0360172991
 O          5.9064769298       -0.0100428295        0.7544892711
 C          3.8116633899        1.3592827702       -0.0582978796
 C          3.2968783496        2.0375440203        1.0281133302
 C          2.7322088895        3.2871589302        0.8293306199
 C          2.7001145698        3.8392830900       -0.4419065702
 C          3.2261960201        3.1476042200       -1.5221955599
 C          3.7874895402        1.8947936900       -1.3309731497
 H          4.1953141405        1.3164479100       -2.1449454495
 H          3.1988115003        3.5774170498       -2.5111998400
 H          2.2594850498        4.8121317400       -0.5931146604
 H          2.3168093093        3.8249943603        1.6662319897
 H          3.3312326594        1.5795086004        2.0023333903
 H          4.3166503596       -1.3538931895        2.1213649609
 H          2.8541385697       -3.1324346696        2.6662120907
 H          0.7477733399       -4.3207359098        2.1719478603
 H         -0.7224972397       -3.5311932702        0.3550139099
 C         -0.4047384395       -1.4472115403       -1.2697378003
 H         -0.5880650693       -2.3196970704       -1.9193352403
 C          0.1814689006       -0.3603219704       -2.1586615303
 C         -0.7099799993        0.5294436494       -2.9712996906
 C          0.0688174504        1.0954393696       -1.8239432705
 H          0.9114401504        1.7358514897       -2.0396994304
 H         -0.4571069799        1.3601857797       -0.9208092907
 H         -1.7771430993        0.4033862094       -2.8579880309
 H         -0.4054477390        0.7795793493       -3.9763711506
 H          1.1037067608       -0.6824486804       -2.6343184800
 O         -0.9110170403        0.1293734599        1.1466130394
