  62
        -98.93860069
 C         -0.2573369049       -1.8953857147        0.1181714913
 C         -1.4366348077       -1.9075512462        0.9028575905
 C         -2.5899685758       -1.1817006106        0.3568450180
 C         -2.4729112650       -0.5408251406       -0.8196662893
 C         -3.5691989716        0.1798010139       -1.5590555772
 C         -4.1223335075        1.4504196528       -0.8852272756
 C         -5.3689510640        1.2165079570       -0.0231652048
 H         -6.0593544713        2.0496728851       -0.1697616670
 H         -5.8797462784        0.3200207494       -0.3767201875
 C         -5.1233682496        1.1031478548        1.4844928099
 H         -4.9623873507        2.1021012480        1.8968853817
 H         -6.0305766905        0.7019294471        1.9417729781
 C         -3.9344936279        0.2394221672        1.9090206487
 H         -4.0001223614        0.0767084533        2.9871146581
 H         -3.0006468531        0.7843951762        1.7429699587
 C         -3.8360999654       -1.1208610918        1.1907945570
 H         -3.7598685942       -1.9240390475        1.9267291610
 H         -4.7196515250       -1.2976836672        0.5787549897
 H         -3.3377513729        1.9200540755       -0.2922959334
 H         -4.3895117566        2.1452189992       -1.6832197877
 H         -3.1423623381        0.4417343924       -2.5287991703
 H         -4.3891489598       -0.5205433096       -1.7340135580
 O         -1.3091606293       -0.5146810875       -1.5215255034
 C         -0.1668860986       -1.1577280769       -1.0633351612
 O          0.8278844597       -0.9973914947       -1.7927525060
 O         -1.5244556022       -2.5094508111        2.0076771760
 C          0.9566380230       -2.6279932737        0.6578139088
 C          2.1780970883       -1.7462326482        0.5832308714
 C          3.4055672916       -2.1621585160        0.0843406170
 C          4.4843735218       -1.2948557677        0.0656481238
 C          4.3600936941        0.0032562509        0.5234823018
 C          3.1326381576        0.4311024777        1.0185465808
 C          2.0637345989       -0.4465655801        1.0621596109
 H          1.1187561103       -0.1041682324        1.4590583973
 N          2.9608744661        1.7470388445        1.4808924438
 S          1.5328784738        2.5582112172        1.2084942920
 O          1.8712583491        3.9503098619        1.4300536846
 O          0.4839386603        2.0396883112        2.0532946452
 C          1.0839923526        2.3540110892       -0.5063276148
 C         -0.2503167251        2.5079311695       -0.8216168665
 C         -0.6431490589        2.4521051491       -2.1477400366
 C          0.3031503844        2.2311728651       -3.1348995114
 C          1.6385313452        2.0743069960       -2.8039282093
 C          2.0390631406        2.1466502750       -1.4796334275
 H          3.0750075394        2.0245585917       -1.2097401872
 H          2.3716343365        1.8890705064       -3.5722094759
 H         -0.0040603787        2.1727590155       -4.1672104569
 H         -1.6836039671        2.5730535694       -2.4028059583
 H         -0.9534669627        2.6580783973       -0.0164717882
 H          3.7580571076        2.3542017392        1.3574909944
 H          5.1987529756        0.6825331265        0.4972605966
 H          5.4328209474       -1.6317041478       -0.3241032279
 H          3.5176826578       -3.1601415506       -0.3053704245
 H          0.7257588624       -2.7838551759        1.7260895951
 C          1.1688282662       -4.0102663194        0.0562133790
 C          0.0468155789       -4.7508261168       -0.6064366814
 C          1.1899529861       -4.2349448534       -1.4251573966
 H          1.8941484864       -4.9491090854       -1.8262064731
 H          1.0239791972       -3.3775629746       -2.0579624929
 H         -0.0316724518       -5.8147680930       -0.4392244145
 H         -0.9075232496       -4.2504991118       -0.6860838592
 H          1.8480156266       -4.6133453566        0.6509388268
