  62
        -98.94483645
 C         -1.9446429996       -0.5596310316       -0.5894907478
 C         -3.0272326006       -1.3232798491       -0.0889904081
 C         -4.3569854541       -0.7220644863       -0.2355516756
 C         -4.4840885578        0.4783518945       -0.8299070533
 C         -5.7752387470        1.2098190473       -1.0794919950
 C         -6.2718008823        2.0285632778        0.1200033108
 C         -6.8320615880        1.2062794919        1.2811919378
 H         -7.3384869988        1.9032689140        1.9518768433
 H         -7.5845576842        0.5131626433        0.9038012654
 C         -5.7719375756        0.4348100379        2.0795726266
 H         -4.7829868245        0.8452590818        1.8623598835
 H         -5.9483527939        0.5744258228        3.1484841165
 C         -5.7520337705       -1.0709675908        1.8165095056
 H         -6.6924131458       -1.5138927147        2.1518066127
 H         -4.9435823710       -1.5111449362        2.4056460395
 C         -5.5293433661       -1.4524498302        0.3470835351
 H         -5.3115289404       -2.5221568649        0.2994039527
 H         -6.4292585743       -1.2524657870       -0.2340004849
 H         -7.0613058824        2.6909403461       -0.2425130414
 H         -5.4514737731        2.6548526944        0.4783906927
 H         -6.5461244148        0.5003211712       -1.3816476367
 H         -5.5878929302        1.8944098957       -1.9095938920
 O         -3.4192272068        1.1772929307       -1.3053351873
 C         -2.1247720269        0.6898342212       -1.1826585946
 O         -1.2496727709        1.4493079476       -1.6396445045
 O         -2.8880414043       -2.4528506404        0.4514601441
 C         -0.5391111928       -1.1237865200       -0.4667087446
 C          0.2912958254       -0.2083071938        0.3972187655
 C         -0.0832236933       -0.0376900102        1.7288448889
 C          0.6155613994        0.8190279379        2.5555106023
 C          1.7092355062        1.5185552919        2.0744077724
 C          2.0914456722        1.3571953575        0.7485332823
 C          1.3874404899        0.4914548892       -0.0798491995
 H          1.6930306457        0.4037928024       -1.1081584856
 N          3.1793260833        2.0792705863        0.2338368310
 S          4.3259413585        1.3600167405       -0.7435966895
 O          5.4044380444        2.3220206894       -0.7985943269
 O          3.7495187820        0.9724097481       -2.0048475204
 C          4.8515455333       -0.0788332150        0.1699207150
 C          4.2210999233       -1.2885740102       -0.0395733081
 C          4.6019044599       -2.3812072097        0.7237920221
 C          5.5987056146       -2.2464268785        1.6776764036
 C          6.2239059749       -1.0242550810        1.8743701542
 C          5.8453509467        0.0725131582        1.1176886193
 H          6.3121333887        1.0376887594        1.2298887972
 H          7.0018599629       -0.9233561604        2.6138984081
 H          5.8913091470       -3.0999792960        2.2686059857
 H          4.1177958211       -3.3324098124        0.5699012432
 H          3.4535869196       -1.3576830656       -0.7923663307
 H          3.6175112529        2.7018314841        0.8966502104
 H          2.2532292840        2.1953429311        2.7157348075
 H          0.3104542359        0.9438489000        3.5834878333
 H         -0.9406973453       -0.5816658570        2.1008879377
 H         -0.6592594238       -2.0804103987        0.0623747117
 C          0.0520741923       -1.3966928485       -1.8325214578
 C          1.1167210806       -2.4392176542       -1.9910951180
 C         -0.2647511768       -2.6926873531       -2.5142222033
 H         -0.4238741598       -2.6872960929       -3.5821179535
 H         -0.8925464803       -3.3927544283       -1.9825014325
 H          1.9104397512       -2.2599390890       -2.7015092144
 H          1.4226096887       -2.9761320381       -1.1056624734
 H          0.1086145552       -0.5113609454       -2.4560670359
