  62
        -98.93920311
 C          1.9019442531        0.7579707301        0.7195497348
 C          2.1154332133        0.2240301399       -0.5750326846
 C          2.6242631830       -1.1537396787       -0.6188423513
 C          2.7705117471       -1.8539427353        0.5193199073
 C          3.2563888488       -3.2735938063        0.6320748170
 C          4.7855242271       -3.4089964157        0.6415141622
 C          5.4692371422       -3.1616610589       -0.7038965575
 H          6.5029141875       -3.4983097633       -0.6034111038
 H          4.9972971422       -3.7800663075       -1.4678852834
 C          5.4700230419       -1.6943374645       -1.1549852743
 H          5.2498759549       -1.0504394047       -0.3002583825
 H          6.4663766086       -1.4231180675       -1.5109234161
 C          4.4849338900       -1.3764140961       -2.2800253353
 H          4.7716263498       -1.9203576503       -3.1825937680
 H          4.5466127990       -0.3070462486       -2.4970466064
 C          3.0230992258       -1.7097817122       -1.9525803799
 H          2.3847681579       -1.2452863847       -2.7081820504
 H          2.8669359408       -2.7880281826       -1.9774676223
 H          5.1911986833       -2.7230484017        1.3889055453
 H          5.0198109921       -4.4264751310        0.9627940265
 H          2.8683999199       -3.6596458406        1.5772938033
 H          2.8402322970       -3.8682433566       -0.1816139163
 O          2.4652486576       -1.3354256017        1.7398907711
 C          2.0397432208       -0.0235124581        1.8683515804
 O          1.8131550627        0.3252926968        3.0462057022
 H         -0.7362752263        0.6364758479        0.6185015016
 C         -0.8048858767        1.5141714069       -0.0100554018
 C          0.2315941551        2.4404261572       -0.0041577380
 C          0.1269597883        3.5592541223       -0.8191449090
 C         -0.9893551786        3.7383000446       -1.6182579165
 C         -2.0185697751        2.8165680561       -1.6191025409
 C         -1.9174859331        1.6850737849       -0.8149404147
 N         -2.9231167085        0.7044871229       -0.8351032888
 S         -3.1405663864       -0.3002740664        0.4968525379
 O         -3.2003354261        0.4814620874        1.7126781380
 O         -2.1534897468       -1.3516540091        0.4575435638
 C         -4.7512530159       -0.9689152001        0.1239890191
 C         -4.8461206136       -2.0222715862       -0.7658264322
 C         -6.0997351365       -2.5222476679       -1.0807871282
 C         -7.2313325672       -1.9637008147       -0.5049697519
 C         -7.1204980934       -0.9084482763        0.3878995936
 C         -5.8697358158       -0.4031340048        0.7065449763
 H         -5.7328830384        0.4093382235        1.4018776764
 H         -8.0013161323       -0.4784422670        0.8366675431
 H         -8.2054248615       -2.3554717318       -0.7515898905
 H         -6.1892593991       -3.3445742370       -1.7721199792
 H         -3.9380331532       -2.4285296594       -1.1802555726
 H         -3.7980269751        1.0332585900       -1.2189106350
 H         -2.8860568326        2.9579800085       -2.2453293845
 H         -1.0580401045        4.6113821914       -2.2494331516
 H          0.9247927730        4.2829545746       -0.8439149620
 C          1.3953022789        2.1749942444        0.9209471284
 H          0.9996408105        2.1881543919        1.9515428425
 C          2.4800856291        3.2410789081        0.8586857468
 C          3.9187198239        2.8977867942        1.1036700535
 C          3.4692258186        3.3075559717       -0.2647365457
 H          3.7657487406        4.2802933366       -0.6291164450
 H          3.3972794789        2.5539418747       -1.0322510286
 H          4.5178349616        3.5865316888        1.6804334302
 H          4.1624295733        1.8588704055        1.2746517968
 H          2.1412725784        4.1881113595        1.2675658371
 O          1.9031731229        0.8522141476       -1.6440749746
