  62
        -98.94089651
 C         -2.3131686598       -0.3451946596        0.3138003695
 C         -3.5491592298       -0.7971510991        0.8350222499
 C         -4.6943268598        0.0957540308        0.6284853689
 C         -4.5182720897        1.2699738101       -0.0047542222
 C         -5.5831025896        2.3001656899       -0.2681885933
 C         -6.4206870796        2.0262428387       -1.5249163731
 C         -7.4129710996        0.8686866988       -1.4066885320
 H         -8.0243502097        1.0055113498       -0.5142456922
 H         -8.0785356996        0.9284262880       -2.2700908721
 C         -6.7633045897       -0.5219109412       -1.3801679706
 H         -5.7372551197       -0.4521890616       -1.7490316406
 H         -7.3015880897       -1.1884773318       -2.0577243899
 C         -6.7494830498       -1.1889261598       -0.0047850199
 H         -6.2337868498       -2.1483623999       -0.0947285889
 H         -7.7742315598       -1.3860750794        0.3175881103
 C         -6.0433611498       -0.3720594187        1.0851406693
 H         -6.6610815698        0.4758482616        1.3798778384
 H         -5.8938185599       -1.0170436578        1.9544356900
 H         -6.9822543595        2.9368118885       -1.7461508841
 H         -5.7434368895        1.8421101578       -2.3621347329
 H         -6.2401746697        2.3776798308        0.5984869565
 H         -5.0662143096        3.2531371598       -0.3998444143
 O         -3.3079961797        1.6770127396       -0.4745691626
 C         -2.1811318597        0.8777560397       -0.3430655017
 O         -1.1459290796        1.3655608992       -0.8372695221
 O         -3.6851362799       -1.8879062184        1.4514468210
 C         -1.0861294698       -1.2224672195        0.4729167805
 C          0.0099303202       -0.4777566188        1.1942241398
 C         -0.3028604899        0.2358895923        2.3486481490
 C          0.6720309501        0.9363149630        3.0309785484
 C          1.9801448901        0.9378201625        2.5797704485
 C          2.3088601702        0.2103512313        1.4423500292
 C          1.3264609402       -0.4959423693        0.7612208299
 H          1.6055009302       -1.0448110202       -0.1216659096
 N          3.6453162002        0.1486081908        1.0080806894
 S          4.0188511703        0.0906495992       -0.6361427906
 O          3.4686010304        1.2368208985       -1.3254156818
 O          3.6630547403       -1.2047308814       -1.1565567093
 C          5.7949291903        0.2237899192       -0.5350891506
 C          6.4092164404        1.4332631489       -0.7978433618
 C          7.7881163304        1.5232828189       -0.6862063418
 C          8.5245690003        0.4093028493       -0.3128199706
 C          7.8938104102       -0.7985591104       -0.0530996794
 C          6.5160826502       -0.8956069305       -0.1643406494
 H          5.9834360002       -1.8140034103        0.0188654615
 H          8.4700691102       -1.6630035901        0.2346907315
 H          9.5971711003        0.4822816593       -0.2260184106
 H          8.2813753804        2.4598749487       -0.8908157927
 H          5.7964266304        2.2704390086       -1.0917854627
 H          4.2273997002        0.8349178413        1.4701742987
 H          2.7403179501        1.4942960130        3.1069264579
 H          0.4112557601        1.4939003439        3.9181253078
 H         -1.3269898399        0.2425949827        2.6969736690
 H         -1.4072156199       -2.0617319689        1.1090673113
 C         -0.6550604398       -1.7710707709       -0.8712507089
 C          0.0237871802       -3.1037802310       -0.9634152376
 C         -1.3845149698       -2.9450309015       -1.4497792078
 H         -1.5711583297       -2.9631356925       -2.5131243778
 H         -2.1807738798       -3.3723645208       -0.8577846174
 H          0.8143048202       -3.2269780018       -1.6887431174
 H          0.1833354001       -3.6457971201       -0.0434936270
 H         -0.3396408097       -0.9906663916       -1.5568109797
