  62
        -98.94186613
 C         -2.7761233915       -0.2838167271       -0.2587811186
 C         -2.0341581645        0.5414331296       -1.1387567108
 C         -2.0341399993        1.9788327347       -0.8298577071
 C         -2.7368789886        2.4350511791        0.2211793644
 C         -2.7855894453        3.8656483863        0.6712139295
 C         -1.7088455930        4.1613793990        1.7241169715
 C         -0.3072620038        3.6872861053        1.3376219544
 H          0.3716224683        4.0025528793        2.1336088184
 H         -0.2796610608        2.5944375333        1.3189844175
 C          0.2017932472        4.2230207785       -0.0075197576
 H         -0.3733155727        5.1025353739       -0.3009725536
 H          1.2400626123        4.5375678400        0.1168689355
 C          0.1795045843        3.1936789953       -1.1392269188
 H          0.6331828964        2.2646223510       -0.7823496147
 H          0.7928063078        3.5748945945       -1.9606333200
 C         -1.2065569012        2.8695021239       -1.7127813264
 H         -1.7389622128        3.7956641968       -1.9388359598
 H         -1.0633255944        2.3179017542       -2.6464456479
 H         -1.6913788271        5.2382713351        1.9033676474
 H         -1.9899947300        3.6660892481        2.6565092073
 H         -2.6531470893        4.5160598837       -0.1911857266
 H         -3.7676870297        4.0529309252        1.1091776228
 O         -3.4694350859        1.6210412858        1.0234006549
 C         -3.4788906632        0.2525205827        0.8253914286
 O         -4.1569819731       -0.3776042186        1.6623175119
 H         -0.2624232230       -1.4263266696       -1.1614500186
 C         -0.3109144061       -2.0197201765       -0.2605180394
 C         -1.5489957124       -2.3458119032        0.2742643235
 C         -1.5863718438       -3.0955628381        1.4437713701
 C         -0.4145090515       -3.4889671533        2.0681419327
 C          0.8173326409       -3.1247940071        1.5528124853
 C          0.8607174968       -2.3807082979        0.3826123457
 N          2.1137117273       -1.9240910080       -0.1133316209
 S          2.6145101063       -0.5779343857        0.7934061601
 O          2.9352883751       -1.0381848472        2.1211843044
 O          1.6303986889        0.4791234130        0.7082211630
 C          4.1059342459       -0.1120942411       -0.0639949187
 C          5.2493354900       -0.8568666744        0.1531237085
 C          6.4045319068       -0.5247665813       -0.5359533584
 C          6.3963272893        0.5391613712       -1.4260604567
 C          5.2405851712        1.2766249009       -1.6333185099
 C          4.0808097030        0.9485265823       -0.9483929466
 H          3.1607368856        1.4972462979       -1.0752431625
 H          5.2363265021        2.1040407433       -2.3245584824
 H          7.2967130915        0.7966473111       -1.9611117764
 H          7.3056727147       -1.0947564814       -0.3773596134
 H          5.2084848553       -1.6688293581        0.8598179497
 H          2.0078100880       -1.6069372889       -1.0709132090
 H          1.7360520824       -3.3798154689        2.0550361004
 H         -0.4616520446       -4.0670233532        2.9787634906
 H         -2.5432614871       -3.3429046273        1.8807074101
 C         -2.8090746763       -1.8042565232       -0.3581023328
 H         -3.6605726543       -2.1266187900        0.2558098638
 C         -3.0077599998       -2.3246285862       -1.7670431552
 C         -3.5256282148       -3.7176405743       -1.9561990581
 C         -4.3992557150       -2.5428612034       -2.2763958511
 H         -4.6085517705       -2.3190834105       -3.3115351453
 H         -5.2169395482       -2.3169478243       -1.6072587032
 H         -3.7531492826       -4.2908854491       -1.0701656950
 H         -3.1344177566       -4.3052785870       -2.7722907285
 H         -2.2741554077       -1.9579411834       -2.4720301944
 O         -1.3935187727        0.1266596431       -2.1431451885
