  62
        -98.94729686
 C          2.2974139706        0.7004462587        0.2223568305
 C          1.6025362307        0.0104942091       -0.8006131398
 C          1.8458246802       -1.4363989610       -0.8787867200
 C          2.6062433698       -2.0376718614        0.0530151501
 C          2.9712168493       -3.4965635915        0.1001639100
 C          1.8951643388       -4.3888614813        0.7326069195
 C          0.6740147690       -4.6545803908       -0.1478530009
 H          1.0031106892       -4.9959074407       -1.1303323409
 H          0.1194867886       -5.4736748707        0.3145173788
 C         -0.2692875506       -3.4544704604       -0.3077944910
 H         -0.0908787706       -2.7277314806        0.4887654192
 H         -1.3041946107       -3.7886998401       -0.1937248513
 C         -0.1754249100       -2.7435967402       -1.6569264808
 H         -0.8742889097       -1.9048743500       -1.6378090808
 H         -0.4876224500       -3.4254945300       -2.4518192710
 C          1.2174004603       -2.2029868206       -2.0051982903
 H          1.8706258201       -3.0244645307       -2.3017546203
 H          1.1125490408       -1.5181980604       -2.8507431602
 H          1.5717296087       -3.9353089214        1.6728092595
 H          2.3630276185       -5.3477945115        0.9683145694
 H          3.8784014291       -3.5685957019        0.7043227002
 H          3.1946286195       -3.8524262714       -0.9063291500
 O          3.1708043797       -1.3558244218        1.0854110304
 C          3.0302792501        0.0170551583        1.1950328906
 O          3.6001069300        0.5104489479        2.1907561709
 O          0.8333581011        0.5655425995       -1.6275479399
 C          2.1810336310        2.2063057787        0.3968971208
 C          0.7306187312        2.6134159491        0.3155742804
 C          0.2357693517        3.5925549795       -0.5357794295
 C         -1.1166583182        3.8896715299       -0.5490697198
 C         -2.0033403086        3.2008246700        0.2581689498
 C         -1.5167531992        2.2152542997        1.1097894697
 C         -0.1579497993        1.9554429793        1.1572669501
 H          0.2092013603        1.1906651390        1.8268886600
 N         -2.3770702597        1.4481747198        1.9245060593
 S         -2.4429056601       -0.1969683001        1.6010812090
 O         -3.4015393505       -0.7294345700        2.5461534087
 O         -1.1191375903       -0.7601430505        1.6521964593
 C         -3.1305193297       -0.2945861196       -0.0431694512
 C         -2.3685661992        0.0990402404       -1.1257636009
 C         -2.9477395289        0.0842632008       -2.3867031111
 C         -4.2639305989       -0.3193779188       -2.5445917215
 C         -5.0148461394       -0.7110205187       -1.4461344318
 C         -4.4465537497       -0.6931277291       -0.1831181916
 H         -4.9904142901       -0.9856770191        0.7005812582
 H         -6.0385670294       -1.0260933384       -1.5689488221
 H         -4.7055064987       -0.3284960784       -3.5286238116
 H         -2.3544027485        0.3892778808       -3.2338312408
 H         -1.3417761592        0.4035170700       -0.9910444806
 H         -3.3199720196        1.8105153301        1.9730221191
 H         -3.0613924086        3.4136712004        0.2265646795
 H         -1.4878229778        4.6540607201       -1.2144907298
 H          0.9041853621        4.1098112394       -1.2041399192
 H          2.5193321008        2.3945646284        1.4298856409
 C          3.0937936115        3.0157017385       -0.5124411988
 C          4.3591645415        2.4269740183       -1.0595538286
 C          3.2180243919        2.7364075288       -1.9790029688
 H          3.3191952423        3.5747487789       -2.6526686786
 H          2.6431407417        1.9175323390       -2.3801709291
 H          5.2393415817        3.0512298880       -1.0979121082
 H          4.5684127711        1.3915461381       -0.8312909387
 H          3.1460632518        4.0565133485       -0.2076989386
