  62
        -98.93417350
 C         -2.4070281483       -0.9755637677        0.0865046847
 C         -3.6533592984       -0.9357087827        0.7606710235
 C         -4.7119723178       -0.1073888500        0.1576755158
 C         -4.4393602063        0.5778521038       -0.9658427424
 C         -5.3468903277        1.5154363029       -1.7133282657
 C         -5.1352118810        2.9659489793       -1.2473972249
 C         -5.9769587032        3.3850996864       -0.0427923780
 H         -5.6397134056        4.3793958068        0.2588572488
 H         -7.0218707607        3.4723477228       -0.3479499688
 C         -5.8974572674        2.4510395053        1.1674677402
 H         -4.8614082881        2.1488283924        1.3312364792
 H         -6.2119571899        3.0153649571        2.0475491416
 C         -6.7888299582        1.2078067751        1.0300086424
 H         -7.4132048489        1.1097808158        1.9205838655
 H         -7.4692145922        1.3473277928        0.1901774073
 C         -6.0368250494       -0.1212121185        0.8705564503
 H         -6.6925354702       -0.8443843524        0.3735404230
 H         -5.8136613462       -0.5332053112        1.8598762596
 H         -4.0740361821        3.0922850177       -1.0177342462
 H         -5.3721963192        3.6374536423       -2.0751425523
 H         -6.3849380873        1.2148622867       -1.6065810954
 H         -5.0665249331        1.4444360012       -2.7663747400
 O         -3.2185468015        0.5401199627       -1.5642096514
 C         -2.1731098357       -0.2242488229       -1.0662824932
 O         -1.1290754224       -0.1392715059       -1.7377419473
 O         -3.8727107566       -1.5644092825        1.8310378318
 C         -1.3109512149       -1.8283448182        0.7011720718
 C         -0.0311643848       -1.0405226708        0.8128101852
 C          0.0818887383       -0.0682092269        1.8021974415
 C          1.2356515472        0.6820742520        1.9278841784
 C          2.2995550873        0.4833267910        1.0655411299
 C          2.1956227791       -0.4806590658        0.0724748348
 C          1.0400869358       -1.2423096636       -0.0425977108
 H          0.9649064963       -1.9768609315       -0.8295511042
 N          3.2641381580       -0.6700907023       -0.8199277703
 S          4.8006930366       -0.9005165193       -0.1930392874
 O          5.5233423432       -1.6307930689       -1.2118814068
 O          4.7508651827       -1.5088388337        1.1168304844
 C          5.4724324937        0.7442004677       -0.0753974333
 C          5.9787969266        1.1967529590        1.1271150680
 C          6.5107596857        2.4752783740        1.1917263541
 C          6.5277599095        3.2736197992        0.0583981253
 C          6.0165537495        2.8035047314       -1.1422846944
 C          5.4841867207        1.5261839233       -1.2137425368
 H          5.0792803253        1.1236316540       -2.1273201500
 H          6.0306549938        3.4275438125       -2.0214013810
 H          6.9416568247        4.2682713873        0.1106947300
 H          6.9083827631        2.8427718857        2.1240837087
 H          5.9394100168        0.5424685741        1.9834313443
 H          3.0652534137       -1.3259886617       -1.5609022771
 H          3.2008589689        1.0681233101        1.1527838670
 H          1.3077319936        1.4314041646        2.7015826477
 H         -0.7518515124        0.0941590610        2.4717494260
 H         -1.6703525944       -2.0349150956        1.7226834449
 C         -1.1178915486       -3.1824406533        0.0342464908
 C         -2.2929936236       -3.9455354582       -0.4975826901
 C         -1.2660186772       -3.3986521569       -1.4409413804
 H         -0.5940951098       -4.0940989488       -1.9235562372
 H         -1.5261987902       -2.5495632161       -2.0531560812
 H         -2.3311284967       -5.0123309162       -0.3366623594
 H         -3.2580989528       -3.4618165121       -0.4581333203
 H         -0.3498166998       -3.7666047357        0.5336291712
