  62
        -98.94122362
 C          2.2334717482        0.9359055107       -0.0590332749
 C          2.9385898012        0.3948312217        1.0482381253
 C          3.7800516963       -0.7781538912        0.7826390035
 C          3.8149048907       -1.2902598822       -0.4606175612
 C          4.6662650150       -2.4492963567       -0.8893396700
 C          6.0319911852       -1.9753109539       -1.4061104148
 C          6.7359876940       -0.9881684340       -0.4750542523
 H          6.1587149695       -0.0615693446       -0.4363848371
 H          7.7008201608       -0.7474052627       -0.9264900134
 C          6.9545873376       -1.5074689057        0.9528629249
 H          7.9749311469       -1.2686681486        1.2598796765
 H          6.8566184231       -2.5934641016        0.9711257823
 C          6.0203475525       -0.8974429936        1.9995330337
 H          6.0444127965        0.1923770576        1.9217512309
 H          6.3993559547       -1.1633036354        2.9898380959
 C          4.5567396089       -1.3522187247        1.9339877521
 H          4.0561837776       -0.9960933182        2.8391277928
 H          4.5096754269       -2.4432031926        1.9232396497
 H          5.8858886579       -1.4894105637       -2.3736192263
 H          6.6656554754       -2.8509357955       -1.5579347174
 H          4.1476518560       -2.9795010999       -1.6900794739
 H          4.7988097141       -3.1254600469       -0.0468369985
 O          3.1015798435       -0.7700957187       -1.4895642198
 C          2.2984285724        0.3529498114       -1.3246324243
 O          1.7174574913        0.7018989494       -2.3702085600
 O          2.8721287295        0.8827157176        2.2080561528
 C          1.3917786816        2.1717695522        0.2132656966
 C         -0.0376054622        1.7923984337        0.5045285782
 C         -0.6573045264        2.1811093997        1.6858867950
 C         -1.9634975063        1.8073268522        1.9513855379
 C         -2.6774666423        1.0438443218        1.0453796304
 C         -2.0644059006        0.6434468894       -0.1348607854
 C         -0.7552170841        1.0181633918       -0.3976488472
 H         -0.2811895270        0.7023010388       -1.3157763225
 N         -2.7821686561       -0.1295145590       -1.0672958875
 S         -3.4799591300       -1.5531019153       -0.5086007786
 O         -2.7557126225       -2.0873877265        0.6224038549
 O         -3.5859980630       -2.4098658648       -1.6694422258
 C         -5.1137452095       -1.0504393992       -0.0090858918
 C         -5.5359627411       -1.2637949095        1.2884687144
 C         -6.8129767865       -0.8642183385        1.6513765725
 C         -7.6401781300       -0.2626245696        0.7153416708
 C         -7.2018687892       -0.0583741365       -0.5847344017
 C         -5.9270118833       -0.4562031032       -0.9542682462
 H         -5.5486270811       -0.3206116865       -1.9537026166
 H         -7.8480914642        0.4092359433       -1.3099893558
 H         -8.6326906775        0.0485126435        1.0006865468
 H         -7.1555727377       -1.0225757450        2.6613077986
 H         -4.8553832507       -1.7305848148        1.9827627224
 H         -2.2603853305       -0.3071324770       -1.9144299817
 H         -3.6947332924        0.7500641597        1.2461757706
 H         -2.4314179935        2.1139189388        2.8742859822
 H         -0.1019334303        2.7645906269        2.4054560584
 H          1.8142806392        2.5916560230        1.1397264641
 C          1.5250752082        3.2360745667       -0.8682817544
 C          0.4058625865        3.6602707495       -1.7670259575
 C          0.8754962448        4.5752879008       -0.6789395276
 H          1.4284462212        5.4628450544       -0.9461831580
 H          0.2337563589        4.6940783813        0.1811153405
 H          0.6529443890        3.8961105513       -2.7909835823
 H         -0.5547038110        3.1837617649       -1.6522283375
 H          2.5158994119        3.2359994870       -1.3117174594
