  62
        -98.94918555
 C         -1.3174458016       -1.5599484760       -0.1438520956
 C         -2.3262930890       -1.0438242029        0.7028154639
 C         -3.0342730372        0.1415198232        0.2055512312
 C         -2.7092111768        0.6583266054       -0.9932605895
 C         -3.3533242287        1.8505617009       -1.6477003774
 C         -2.8025312938        3.2019425912       -1.1717323062
 C         -3.2329757297        3.6234549054        0.2338823332
 H         -2.9711955111        4.6776377863        0.3451319425
 H         -4.3174075727        3.5458803305        0.3215123267
 C         -2.5686178443        2.8352256105        1.3713155278
 H         -1.6652632204        2.3382380377        1.0090222506
 H         -2.2405479736        3.5265449784        2.1516207761
 C         -3.4691918097        1.7978852706        2.0425777726
 H         -2.8705515431        1.2654524358        2.7867097553
 H         -4.2839624698        2.3043682893        2.5658741226
 C         -4.0753871572        0.7627058865        1.0866432779
 H         -4.8583430791        1.2232540979        0.4838576472
 H         -4.5194245309       -0.0356064692        1.6871325957
 H         -1.7113473763        3.1792596336       -1.2221215149
 H         -3.1519852818        3.9611342968       -1.8753660518
 H         -3.1628867281        1.7581166732       -2.7190477327
 H         -4.4309922987        1.8197722371       -1.4841336596
 O         -1.7401198335        0.1245758172       -1.7833039860
 C         -1.0020399325       -0.9779660813       -1.3706789941
 O         -0.1211268960       -1.3356694609       -2.1736558259
 O         -2.6264685141       -1.5539301322        1.8166193165
 C         -0.5284531887       -2.7769311069        0.2992407190
 C          0.9440820476       -2.4549351032        0.3740059455
 C          1.9321894254       -3.2957741831       -0.1222514244
 C          3.2678548934       -2.9523331514       -0.0068870435
 C          3.6453420803       -1.7706787695        0.6027502250
 C          2.6654464305       -0.9269855850        1.1143308464
 C          1.3291854076       -1.2747062404        0.9991614761
 H          0.5768059288       -0.6133298954        1.4042799654
 N          3.0208862985        0.2654915193        1.7699012051
 S          2.2179108349        1.6860345751        1.4154881682
 O          3.0626802118        2.7196358818        1.9755421938
 O          0.8656334688        1.6365755718        1.9077609004
 C          2.2306167079        1.8013433947       -0.3616226320
 C          1.0496063553        1.6611831509       -1.0568431086
 C          1.0689396590        1.7195195423       -2.4405862367
 C          2.2717452743        1.9107089398       -3.1012789828
 C          3.4532599534        2.0552961495       -2.3890854072
 C          3.4365304190        2.0000821814       -1.0054484074
 H          4.3320751709        2.1231536358       -0.4181795983
 H          4.3852323350        2.2074931519       -2.9093342942
 H          2.2857870540        1.9471777444       -4.1791163582
 H          0.1490202601        1.5925969831       -2.9885827279
 H          0.1381213006        1.5022851309       -0.5019986668
 H          4.0166469556        0.4262730860        1.8219783729
 H          4.6871248555       -1.5028041326        0.6912292706
 H          4.0248208191       -3.6126433559       -0.4015924636
 H          1.6568822572       -4.2202319112       -0.6021504549
 H         -0.8791483343       -2.9973386303        1.3192094362
 C         -0.8468332920       -3.9611893542       -0.5904033237
 C         -0.7895698726       -5.3561449712       -0.0452429156
 C         -2.1135972801       -4.7244385626       -0.3498860348
 H         -2.6728131742       -5.0782998580       -1.2029714816
 H         -2.7334666907       -4.4062980475        0.4758474746
 H         -0.4420668799       -6.1488168451       -0.6905548762
 H         -0.5137991781       -5.4770124044        0.9914866521
 H         -0.5495124832       -3.7983287610       -1.6202860359
