  62
        -98.94091863
 C         -1.1437684980       -1.2566164487        0.0507945894
 C         -1.5844113254       -0.1959465647        0.8761499470
 C         -2.7087529148        0.6015389253        0.3668445987
 C         -3.2060310132        0.3247274284       -0.8523005510
 C         -4.3884933158        1.0016982636       -1.4854539781
 C         -5.6970826985        0.4707043846       -0.8658730860
 C         -6.4903746955        1.5138468175       -0.0787618318
 H         -7.2630358751        0.9831712796        0.4814990803
 H         -6.9924328848        2.1822610208       -0.7813294742
 C         -5.6768760793        2.3777893664        0.8895677191
 H         -6.3908421300        2.8728402254        1.5512759416
 H         -5.1657030044        3.1677097730        0.3369641143
 C         -4.6451258515        1.6331536116        1.7464061654
 H         -4.9201861358        0.5837429678        1.8538606452
 H         -4.6565555704        2.0701361393        2.7469800067
 C         -3.1957889795        1.7294393077        1.2341358889
 H         -2.5206370641        1.7309176903        2.0953899098
 H         -3.0522028567        2.6784241788        0.7086283033
 H         -5.4496037975       -0.3691850556       -0.2134458821
 H         -6.3389532189        0.0769153844       -1.6552952701
 H         -4.3547334480        0.7806805773       -2.5526222421
 H         -4.3079434480        2.0785348380       -1.3522805676
 O         -2.7256055267       -0.6739898309       -1.6378036258
 C         -1.6795434806       -1.4824271880       -1.2162059662
 O         -1.3304139739       -2.3442455035       -2.0450231759
 O         -1.0554679780        0.0741925426        1.9892794313
 C          0.0146364324       -2.1175489712        0.5168481579
 C          1.2160141646       -1.9213823576       -0.3761909489
 C          2.0851305174       -2.9473587193       -0.7263539233
 C          3.1872050979       -2.6881911775       -1.5230355311
 C          3.4640402616       -1.4061865786       -1.9624308395
 C          2.6037183963       -0.3720208400       -1.6121125263
 C          1.4900438835       -0.6400175869       -0.8334981905
 H          0.8138911977        0.1667531110       -0.5968849660
 N          2.8413198383        0.9483936971       -2.0229009280
 S          2.4726146111        2.2036388846       -0.9798208365
 O          1.0504939063        2.4399422021       -0.9555146643
 O          3.2835025445        3.3059889618       -1.4533617248
 C          3.0685835520        1.6591339053        0.6114722406
 C          2.1951445695        1.3018796446        1.6175280102
 C          2.7123207082        0.8308888800        2.8148552509
 C          4.0831896513        0.7263420304        2.9863722188
 C          4.9487759853        1.0985304806        1.9684665025
 C          4.4387409031        1.5662859257        0.7693351801
 H          5.0782332711        1.8755266653       -0.0413873747
 H          6.0153142453        1.0216291770        2.1050921098
 H          4.4779455738        0.3548993516        3.9188514889
 H          2.0301615828        0.5431573057        3.5991029229
 H          1.1299715318        1.3824673727        1.4654283689
 H          3.7182865628        1.0974345162       -2.4996644011
 H          4.3280182933       -1.2062033976       -2.5771856929
 H          3.8474773421       -3.4964201629       -1.7981507553
 H          1.8949988631       -3.9509317114       -0.3830714892
 H          0.2791538558       -1.7325498309        1.5140866650
 C         -0.4082822930       -3.5655705819        0.6511279785
 C          0.2096403468       -4.4412464465        1.6989819087
 C         -1.2061587884       -3.9757869558        1.8516363135
 H         -2.0048645675       -4.6902480271        1.7204229024
 H         -1.4193717778       -3.2144515304        2.5879190688
 H          0.3819082341       -5.4810207417        1.4651589077
 H          0.9574916255       -4.0015496523        2.3412730277
 H         -0.6730191965       -4.0102931789       -0.3013791029
