  62
        -98.93906632
 C         -2.4698602593       -1.0190036321        0.3848164096
 C         -2.6969657911        0.1677476509        1.1313060965
 C         -3.9943326761        0.8270935020        0.9388992094
 C         -4.8914779095        0.2742512714        0.1027398341
 C         -6.2328512751        0.8595920921       -0.2289772665
 C         -6.1511329022        1.7746405653       -1.4587955523
 C         -5.0164484752        2.7969960948       -1.3936273969
 H         -4.0593425126        2.2707693163       -1.4227325943
 H         -5.0751042269        3.4063616319       -2.2980451947
 C         -5.0542669829        3.7092207376       -0.1595571176
 H         -6.0472991576        3.6833866766        0.2904722173
 H         -4.8689053472        4.7371843827       -0.4779138079
 C         -4.0074883807        3.3785028191        0.9061352286
 H         -3.0196928542        3.3098158640        0.4427945731
 H         -3.9758686460        4.2054705014        1.6206743481
 C         -4.2529460925        2.0930082836        1.7063163938
 H         -3.5495966876        2.0837354214        2.5442709310
 H         -5.2677259410        2.0982504246        2.1096439712
 H         -7.1052048881        2.2937156527       -1.5663231104
 H         -6.0000916590        1.1523458666       -2.3437254976
 H         -6.9218932069        0.0405227318       -0.4412316507
 H         -6.6006158195        1.4183418386        0.6293928979
 O         -4.6517023006       -0.8734486303       -0.5763346414
 C         -3.4408775730       -1.5433984729       -0.4691983409
 O         -3.3839514582       -2.5701949759       -1.1733869376
 H          1.1565841408       -0.2506723959        0.7103740575
 C          0.9740330842       -0.6251398473       -0.2866369720
 C         -0.1669695971       -1.3687321068       -0.5512374494
 C         -0.3877580864       -1.8189391455       -1.8491458945
 C          0.5221664339       -1.5344398751       -2.8506359733
 C          1.6733680144       -0.8167658445       -2.5775288146
 C          1.8976601215       -0.3533000396       -1.2864981530
 N          3.0435408860        0.3991581785       -0.9833802611
 S          3.7481274676        0.2067321415        0.5392640491
 O          3.7785375441       -1.1935694219        0.8969873511
 O          3.0935518186        1.0906429614        1.4707784273
 C          5.3982303642        0.7967909619        0.2101038936
 C          6.4082947840       -0.1135710339       -0.0369533195
 C          7.6813557773        0.3576989644       -0.3173742986
 C          7.9204736542        1.7233145516       -0.3486817900
 C          6.8963805198        2.6248965228       -0.0983495777
 C          5.6216372151        2.1606653304        0.1842142141
 H          4.7971819906        2.8218555077        0.3951882777
 H          7.0867510446        3.6857784811       -0.1207960611
 H          8.9119450014        2.0876811087       -0.5664863929
 H          8.4801388971       -0.3405246772       -0.5089190999
 H          6.1769415373       -1.1657330415        0.0064107654
 H          3.7322661750        0.3829592440       -1.7232047585
 H          2.3891388658       -0.6096884079       -3.3586255292
 H          0.3392624264       -1.8881390730       -3.8541880979
 H         -1.2819283341       -2.3833247597       -2.0636705654
 C         -1.1214664075       -1.6920639209        0.5741337263
 H         -0.7066981319       -1.2464271669        1.4893734135
 C         -1.2098212094       -3.1930574066        0.7749784489
 C         -0.0297388548       -3.9077921543        1.3597202441
 C         -1.2833335082       -3.7452468656        2.1650412296
 H         -1.8995307280       -4.6139767456        2.3419580607
 H         -1.2751322557       -3.0407517155        2.9843015543
 H          0.8320991250       -3.3131939403        1.6275820168
 H          0.2155764114       -4.8891815950        0.9836991947
 H         -1.7772906646       -3.6999076578        0.0056670232
 O         -1.8509065696        0.6509855420        1.9323739785
