  62
        -98.93866631
 C         -1.8803731516       -1.3495614393        0.1488508076
 C         -2.1876563722       -0.3551246760       -0.8082014616
 C         -3.5670326781        0.1697687338       -0.7986121364
 C         -4.4486602752       -0.2809399175        0.1121876153
 C         -5.9105114342        0.0441366293        0.3372095390
 C         -6.5522908738        1.2641657573       -0.3183479386
 C         -6.0368029413        2.6099165225        0.1908772191
 H         -6.4868789069        3.3995576568       -0.4148018867
 H         -6.3778025458        2.7457370690        1.2203386926
 C         -4.5198135394        2.7818919375        0.1832182599
 H         -4.2943470342        3.7787165977        0.5723251045
 H         -4.0648585778        2.0616784875        0.8666375047
 C         -3.8542951549        2.6566201714       -1.1858720348
 H         -4.3249750678        3.3477992358       -1.8878896359
 H         -2.8092075262        2.9577752032       -1.0711126668
 C         -3.8662534385        1.2468657864       -1.8017978441
 H         -4.8055990069        1.0458144277       -2.3108228514
 H         -3.0709450398        1.2006385689       -2.5512882177
 H         -7.6203847778        1.2132729529       -0.0899212798
 H         -6.4596935470        1.2049474431       -1.3988322307
 H         -6.4640524864       -0.8478262253        0.0233120690
 H         -6.0340348277        0.1155775671        1.4225894336
 O         -4.1047959628       -1.2344508462        1.0259160029
 C         -2.8396223086       -1.7855541358        1.0680950459
 O         -2.6902384076       -2.6484644888        1.9558280846
 H          0.3707208097        0.4344586201       -0.4311694024
 C          0.8399890580        0.0833209225        0.4758201586
 C          0.4791333478       -1.1533544399        0.9913677858
 C          1.0895853576       -1.5881690825        2.1615549010
 C          2.0371294360       -0.8040781818        2.7972994004
 C          2.3948277400        0.4277024025        2.2793842176
 C          1.7831618562        0.8731617721        1.1150015162
 N          2.1564866307        2.1194638929        0.5663173631
 S          3.7765191995        2.2347963404        0.1452190000
 O          4.5569269793        2.4860023512        1.3309250328
 O          3.8452765670        3.2467456853       -0.8849822657
 C          4.1731736813        0.6260044246       -0.5154154916
 C          4.9278914575       -0.2561564599        0.2302316061
 C          5.1567487988       -1.5282603738       -0.2689626749
 C          4.6246204391       -1.8953665957       -1.4949058446
 C          3.8683025135       -0.9971435521       -2.2320709763
 C          3.6356649075        0.2755875044       -1.7379633767
 H          3.0541546270        0.9999652226       -2.2860118975
 H          3.4541879893       -1.2834157420       -3.1857824942
 H          4.8009587828       -2.8877468883       -1.8792655099
 H          5.7439936976       -2.2297567509        0.3011409182
 H          5.3213680227        0.0702093402        1.1787828002
 H          1.5797234404        2.3827170582       -0.2208795243
 H          3.1375763572        1.0491221615        2.7533026686
 H          2.5029157066       -1.1560860781        3.7050118420
 H          0.8098777807       -2.5450239667        2.5776350073
 C         -0.5208208193       -2.0216269125        0.2662425762
 H         -0.6906411178       -2.9176195663        0.8777072899
 C          0.0451479339       -2.4553699241       -1.0737006753
 C          1.0879867085       -3.5296277554       -1.1065053723
 C         -0.2950820630       -3.8112171376       -1.6108955433
 H         -0.4480826527       -3.9201122904       -2.6741083760
 H         -0.9403220546       -4.4382114459       -1.0124544872
 H          1.8897589661       -3.4441409264       -1.8228344315
 H          1.3831684787       -3.9684533824       -0.1657165918
 H          0.1318061503       -1.6452035972       -1.7850843317
 O         -1.3685548884        0.0948898320       -1.6552915002
