  62
        -98.94151572
 C          1.5894513894        1.1724116396        0.1618834291
 C          1.6622680499       -0.1646349303        0.6297708793
 C          2.7515859599       -0.9894334601        0.0934057091
 C          3.5969784294       -0.4513096901       -0.8044141513
 C          4.7818292594       -1.1552674699       -1.3982892215
 C          6.0473394496       -0.9117470495       -0.5644185420
 C          5.8565676802       -1.1583685893        0.9321422981
 H          6.8208119903       -0.9880674790        1.4159806578
 H          5.1622747601       -0.4149607294        1.3307570482
 C          5.3489556206       -2.5638378494        1.2837158685
 H          5.9324138609       -2.9468387891        2.1236340084
 H          5.5123084105       -3.2382340795        0.4423880386
 C          3.8783026107       -2.6210541596        1.7013301290
 H          3.6900992408       -1.8798798795        2.4824169689
 H          3.6860470711       -3.6065091496        2.1341766792
 C          2.8544405003       -2.4082818100        0.5789342993
 H          3.0734675802       -3.0850551101       -0.2498155507
 H          1.8691809205       -2.6608567002        0.9826548097
 H          6.8405854596       -1.5587742094       -0.9431738221
 H          6.3597884994        0.1258132105       -0.7032405723
 H          4.5730330096       -2.2216558100       -1.4568034013
 H          4.9420804390       -0.7686043501       -2.4060390017
 O          3.4901955490        0.8269372598       -1.2412911014
 C          2.4898385290        1.6752609897       -0.7788449213
 O          2.5301771886        2.8121403896       -1.2811055915
 O          0.8496359002       -0.6450637703        1.4658233397
 C          0.4597362094        2.0213673395        0.7187957594
 C         -0.7559218408        1.8878674891       -0.1622707502
 C         -0.7044853614        2.2100682289       -1.5160937003
 C         -1.8248735216        2.0633550485       -2.3122536699
 C         -3.0061043813        1.5699344883       -1.7842643294
 C         -3.0631614208        1.2316003086       -0.4382973394
 C         -1.9438608406        1.4057176589        0.3656337203
 H         -2.0050602002        1.1363113991        1.4091877403
 N         -4.2429608205        0.7157638084        0.1279408411
 S         -4.1473620199       -0.7091092714        1.0085809613
 O         -5.5175588998       -1.1627207217        1.1087308819
 O         -3.4662719295       -0.4715251411        2.2537999911
 C         -3.2229267000       -1.8094885014       -0.0472675688
 C         -1.8478746700       -1.8795626011        0.0454074108
 C         -1.1613458001       -2.6786159111       -0.8564820193
 C         -1.8513748403       -3.3901598714       -1.8246036990
 C         -3.2342863603       -3.3132326517       -1.8994119085
 C         -3.9266801702       -2.5110071217       -1.0083097784
 H         -5.0013992402       -2.4268256120       -1.0265704781
 H         -3.7706951804       -3.8713723020       -2.6497707483
 H         -1.3077784304       -4.0086496714       -2.5213394791
 H         -0.0854480001       -2.7291026809       -0.7916486797
 H         -1.3192920998       -1.3263015709        0.8061758005
 H         -5.0181984707        0.6681105881       -0.5185639686
 H         -3.8772208115        1.4470242280       -2.4097077091
 H         -1.7757551920        2.3254513883       -3.3582947700
 H          0.2223825684        2.5768997490       -1.9309455007
 H          0.2115411398        1.5571675496        1.6870445895
 C          0.8573864592        3.4635107696        0.9995028590
 C          0.2549262587        4.6450397994        0.3057896190
 C         -0.0953178007        4.3610076995        1.7334098192
 H          0.2904779694        5.0093424498        2.5055340689
 H         -1.0815181606        3.9699959594        1.9375168995
 H          0.9060529085        5.4771088495        0.0852657886
 H         -0.4987817415        4.4721230191       -0.4456141407
 H          1.9059434593        3.5518063999        1.2643763786
