  62
        -98.94416805
 C         -2.2493427731       -0.8625965771        0.4082319718
 C         -2.4546608754       -0.0116238895       -0.7050018577
 C         -3.3025790867        1.1619018788       -0.4583953294
 C         -3.7870233728        1.3917086444        0.7754943869
 C         -4.6456528313        2.5568546473        1.1872290049
 C         -6.1410737160        2.3613736824        0.9017043390
 C         -6.5385080255        2.4447338351       -0.5726265564
 H         -7.6278143958        2.5099318889       -0.6068749136
 H         -6.1438014993        3.3659012200       -1.0023676713
 C         -6.0891092334        1.2452409851       -1.4187070285
 H         -5.8296990720        0.4123044720       -0.7611119003
 H         -6.9187298318        0.9109865952       -2.0456856625
 C         -4.9071422419        1.5303756134       -2.3453696471
 H         -5.1989529156        2.2692951423       -3.0948339237
 H         -4.6494849778        0.6050874381       -2.8666949635
 C         -3.6488186093        2.0346325540       -1.6267409104
 H         -2.8123963649        1.9941960470       -2.3287664919
 H         -3.7871111101        3.0665655807       -1.3048524290
 H         -6.4510138024        1.3962136879        1.3090289100
 H         -6.6803254111        3.1400353982        1.4460778802
 H         -4.5135957437        2.6748925135        2.2650420308
 H         -4.2950779066        3.4635022090        0.6931538053
 O         -3.5226542665        0.5746717313        1.8312403140
 C         -2.7660958849       -0.5757334803        1.6705328773
 O         -2.6154001106       -1.2421518527        2.7162706165
 O         -1.9561276221       -0.2161540408       -1.8411403364
 C         -1.4150790398       -2.1201971942        0.2513743047
 C         -0.0147525129       -1.7715944795       -0.1944277340
 C          0.6713736789       -2.4791738808       -1.1725220869
 C          1.9628481857       -2.1217803123       -1.5203502807
 C          2.5972256568       -1.0590784768       -0.9045232807
 C          1.9255300769       -0.3524962039        0.0847657867
 C          0.6349089730       -0.7167994719        0.4351035096
 H          0.1148235828       -0.1670377282        1.2112951866
 N          2.5593111409        0.7356937619        0.7124841869
 S          4.0765364010        0.4755020281        1.3860461032
 O          4.2397129817       -0.8972487656        1.8060264531
 O          4.2114128823        1.4831144461        2.4156640519
 C          5.2040958937        0.8471854432        0.0594640237
 C          5.1124932461        2.0861653063       -0.5439854185
 C          5.9891583144        2.3959040968       -1.5714004181
 C          6.9389799789        1.4682922282       -1.9731892935
 C          7.0198757090        0.2299288015       -1.3550134002
 C          6.1450576108       -0.0868848350       -0.3272611854
 H          6.1661620253       -1.0388006673        0.1788565451
 H          7.7587994833       -0.4896063724       -1.6690905871
 H          7.6200290973        1.7124420651       -2.7731036621
 H          5.9287302339        3.3576649504       -2.0548711247
 H          4.3622762007        2.7785893214       -0.1999820369
 H          1.9655322680        1.2246428185        1.3668207756
 H          3.5996843392       -0.7732322063       -1.1781433363
 H          2.4812041133       -2.6772493369       -2.2868658255
 H          0.1937367050       -3.3095481013       -1.6658816594
 H         -1.3457292512       -2.5672877558        1.2546780733
 C         -2.1173288223       -3.0965471713       -0.6698995839
 C         -1.9430385275       -4.5730992093       -0.4851591109
 C         -3.2424010236       -3.9207188487       -0.1226640335
 H         -4.1041415778       -4.0992958245       -0.7481276487
 H         -3.4813341272       -3.7986775075        0.9242814477
 H         -1.9160279564       -5.2031756326       -1.3613821560
 H         -1.3025563885       -4.9051328981        0.3180956095
 H         -2.2221482778       -2.7128855881       -1.6781257193
