  62
        -98.93663255
 C          2.4179805078        0.3887683505        0.5186442514
 C          2.2122345230       -0.3729948389       -0.6537497079
 C          1.8555150454       -1.7912273730       -0.4674167909
 C          1.7270606194       -2.2730886056        0.7813632711
 C          1.3039763359       -3.6500839322        1.2287375333
 C          1.8771489591       -4.8497596067        0.4596008642
 C          0.8457500332       -5.5550071891       -0.4230638651
 H          1.1643319447       -6.5889290566       -0.5737423179
 H         -0.1062597326       -5.5803958033        0.1111181937
 C          0.6328111846       -4.9330788339       -1.8018470634
 H          1.5090848581       -5.1271330561       -2.4242811406
 H         -0.2156527805       -5.4414481667       -2.2656581317
 C          0.3648356473       -3.4268314089       -1.8108398959
 H         -0.3136466862       -3.1409224102       -1.0065261473
 H         -0.1402188581       -3.1818010845       -2.7478050050
 C          1.6413806400       -2.5758175048       -1.7323440418
 H          2.5204239318       -3.1990170561       -1.9202182993
 H          1.6260200763       -1.8195032136       -2.5231160416
 H          2.7347899715       -4.5352461532       -0.1323548740
 H          2.2381400504       -5.5705754268        1.1951248415
 H          1.5981026730       -3.7078568888        2.2796285088
 H          0.2107785323       -3.6827207237        1.2109574801
 O          1.9454232477       -1.5016416602        1.8868840732
 C          2.2679504452       -0.1616565027        1.7884373285
 O          2.4032997432        0.4208705399        2.8856992475
 H          0.1082377474        1.4137585770        0.9024546030
 C          0.2223683595        2.1076673340        0.0809963402
 C          1.4958118208        2.5029517151       -0.3101432874
 C          1.6175562314        3.4137404217       -1.3504672753
 C          0.4892132327        3.8781954800       -2.0055435809
 C         -0.7718446627        3.4370143674       -1.6508283136
 C         -0.9047305775        2.5433569358       -0.5927352989
 N         -2.1698987460        2.0860686827       -0.1843956426
 S         -2.2909385896        0.5427520950        0.4913352617
 O         -1.9632391886        0.6267612851        1.8941813264
 O         -1.5485764244       -0.4221162996       -0.2867634603
 C         -4.0440081146        0.2670074771        0.3090491624
 C         -4.5065470403       -0.5263566343       -0.7234657633
 C         -5.8735208096       -0.7031212784       -0.8725145464
 C         -6.7494869666       -0.0840524487        0.0062847790
 C         -6.2701470469        0.7087270919        1.0388044277
 C         -4.9049370664        0.8882271928        1.1943680156
 H         -4.4843442403        1.4863362734        1.9858480136
 H         -6.9537059054        1.1863052502        1.7219733646
 H         -7.8124657207       -0.2223823466       -0.1123769144
 H         -6.2482889970       -1.3217845575       -1.6718765342
 H         -3.7865018409       -0.9913396794       -1.3778143904
 H         -2.8881948175        2.2465657141       -0.8775142145
 H         -1.6462895346        3.7772693934       -2.1841485374
 H          0.5967120680        4.5784156216       -2.8200616406
 H          2.5948642682        3.7452794151       -1.6607757917
 C          2.6685867381        1.8830548463        0.4128148585
 H          2.6813172498        2.2643109528        1.4449335429
 C          4.0061497330        2.1686447162       -0.2352447531
 C          4.7499273501        3.4271326810        0.0942073798
 C          5.2440255141        2.1086003134        0.6064558359
 H          6.1401790741        1.6881071337        0.1757610598
 H          5.1169948366        1.8840857861        1.6557916381
 H          5.3125132899        3.9133720536       -0.6883214774
 H          4.2954912586        4.1054723518        0.8004366810
 H          4.0674653308        1.7825293826       -1.2459781837
 O          2.3145779006        0.1105233034       -1.8128100655
