  62
        -98.94380325
 C          1.6447489756        1.4260598649        0.4062733637
 C          1.7663985264        0.1798092179        1.0771919560
 C          3.0355036631       -0.5336144580        0.9037118758
 C          4.0183231821        0.0262721173        0.1760508178
 C          5.3890732857       -0.5494834822       -0.0561902810
 C          5.4589994378       -1.5578518499       -1.2110747877
 C          4.8053113969       -2.9116020196       -0.9314969588
 H          5.1944563753       -3.3149518706        0.0038877534
 H          5.1145905503       -3.5877275735       -1.7310449801
 C          3.2715627143       -2.8729417943       -0.8814883664
 H          2.8677584772       -3.7013735349       -1.4674496090
 H          2.9152837949       -1.9504723465       -1.3458999126
 C          2.6769802602       -2.9791457357        0.5229271884
 H          2.9058159492       -3.9602242238        0.9449484878
 H          1.5920936426       -2.8864874579        0.4372349323
 C          3.1651307292       -1.9021307551        1.5004391661
 H          4.1973587531       -2.0950903002        1.7922022013
 H          2.5371183978       -1.9355328534        2.3940490303
 H          6.5155507740       -1.7261451845       -1.4324312518
 H          5.0019916427       -1.1080041375       -2.0955291133
 H          5.7482697844       -1.0187218710        0.8603055326
 H          6.0427657094        0.2924002919       -0.2945902701
 O          3.8748013270        1.2317667512       -0.4311914940
 C          2.6827042747        1.9428962670       -0.3696347472
 O          2.7052785646        2.9946534267       -1.0392557012
 O          0.8564520043       -0.3074890581        1.7984133558
 C          0.3208595907        2.1505564316        0.5742506170
 C         -0.6285663671        1.8435033993       -0.5596032165
 C         -0.2939481288        2.1199632661       -1.8811181924
 C         -1.1872878457        1.8415002118       -2.8990445598
 C         -2.4231961755        1.2835715263       -2.6224365878
 C         -2.7701570299        1.0098698378       -1.3041873728
 C         -1.8703120126        1.2898623231       -0.2843201163
 H         -2.1526010460        1.0803126390        0.7354642667
 N         -4.0296837699        0.4816326606       -0.9998609179
 S         -4.3094502883       -0.4842700845        0.3300256316
 O         -5.6053146117       -1.0705484722        0.0643436276
 O         -4.2040403075        0.2919886994        1.5397176972
 C         -3.0639139144       -1.7588890092        0.2887417200
 C         -2.1262821023       -1.8488414661        1.2955173664
 C         -1.1823864452       -2.8620600958        1.2452049961
 C         -1.1900331424       -3.7603551889        0.1901896404
 C         -2.1393015291       -3.6568858263       -0.8161699623
 C         -3.0870682528       -2.6487873907       -0.7682255311
 H         -3.8507271881       -2.5504264856       -1.5225404912
 H         -2.1420637228       -4.3594027469       -1.6340849954
 H         -0.4539169341       -4.5484675369        0.1535588960
 H         -0.4409256445       -2.9270472995        2.0250683001
 H         -2.1372634134       -1.1319832420        2.1001763699
 H         -4.5932580435        0.2181952898       -1.7936453071
 H         -3.1191249598        1.0697901523       -3.4190390876
 H         -0.9176941833        2.0599836685       -3.9213849785
 H          0.6699276764        2.5537262331       -2.0995086800
 H         -0.1199505090        1.7350343625        1.4912221319
 C          0.4539089544        3.6506841734        0.7507728823
 C         -0.6676189623        4.4031049020        1.3992965473
 C          0.6299197383        4.2165339322        2.1262154420
 H          1.2801523266        5.0691258711        2.2524132723
 H          0.6548309609        3.5228269962        2.9541898150
 H         -0.9113537392        5.3860474214        1.0263722457
 H         -1.5242107353        3.8364425831        1.7338416877
 H          0.9849088650        4.1351520441       -0.0579508374
