  62
        -98.94059294
 C          1.3178543443        1.4054915823       -0.2637114520
 C          2.5247743476        1.3939375348        0.4788903112
 C          3.6141943406        0.5334591261       -0.0109078715
 C          3.4172206042       -0.2070778673       -1.1173636932
 C          4.3366467046       -1.1484270533       -1.8677115731
 C          5.6469824517       -1.6208197272       -1.2438461506
 C          5.4828713740       -2.5517758497       -0.0426172807
 H          5.0919200522       -3.5089636940       -0.3972917685
 H          6.4703197701       -2.7340180101        0.3870959176
 C          4.5467881657       -2.0545876661        1.0564186993
 H          4.5092724812       -2.8214164494        1.8352695467
 H          3.5335074173       -1.9551688290        0.6597867636
 C          4.9551689537       -0.7401377414        1.7186702955
 H          4.2914061444       -0.5831447107        2.5733483097
 H          5.9758545336       -0.8217704597        2.0976007749
 C          4.8612977356        0.5079287824        0.8251347504
 H          4.8099320199        1.3853480506        1.4765157568
 H          5.7454172476        0.6147750315        0.2012610834
 H          6.2687786695       -0.7686964463       -0.9855349102
 H          6.1787165850       -2.1771548921       -2.0206073668
 H          3.7245907548       -2.0204857614       -2.1210647104
 H          4.5645736240       -0.6473312659       -2.8151656362
 O          2.2423868846       -0.1593043201       -1.8071699833
 C          1.1665884445        0.6179805910       -1.4044353811
 O          0.1761793002        0.5122214462       -2.1533685886
 H         -0.5448089230       -0.3465261942        0.2246134179
 C         -0.9984041556        0.1979600532        1.0371805360
 C         -0.7071088030        1.5399493073        1.2242206511
 C         -1.2890202068        2.2042557341        2.2992437326
 C         -2.1398889115        1.5386913503        3.1617935846
 C         -2.4354010802        0.2015017925        2.9656363023
 C         -1.8558680298       -0.4741308436        1.8981039894
 N         -2.1166308723       -1.8359214525        1.6883390449
 S         -2.2978556713       -2.4319133173        0.1341469867
 O         -2.9828960102       -3.6939759317        0.3252071568
 O         -1.0195466115       -2.5072430177       -0.5254963406
 C         -3.3985699519       -1.2728762782       -0.6555256893
 C         -2.9289805349       -0.3435223529       -1.5597516766
 C         -3.8227780371        0.5756842911       -2.0903832729
 C         -5.1550472943        0.5522996000       -1.7112490314
 C         -5.6112547713       -0.3943498949       -0.8057929101
 C         -4.7258816556       -1.3138877094       -0.2703407276
 H         -5.0409672232       -2.0744755663        0.4256256457
 H         -6.6493813109       -0.4154802408       -0.5159203423
 H         -5.8411686703        1.2737726062       -2.1261502060
 H         -3.4633587388        1.3071222819       -2.7970908873
 H         -1.8862451722       -0.3380141700       -1.8380981146
 H         -2.7976133333       -2.2364787848        2.3168796320
 H         -3.0970856134       -0.3216285351        3.6386554390
 H         -2.5795750932        2.0646609089        3.9952065233
 H         -1.0572565222        3.2449960402        2.4658222345
 C          0.2056061251        2.2840985294        0.2745023787
 H          0.7123318744        3.0682086026        0.8552434673
 C         -0.6283424583        2.9497494023       -0.8041106127
 C         -1.2522804563        4.2873858478       -0.5483889553
 C         -0.1003879898        4.1672495858       -1.4995699339
 H         -0.2817140735        4.2727125601       -2.5583988633
 H          0.8627628051        4.5421943507       -1.1845901691
 H         -2.2344513544        4.4799122618       -0.9511001832
 H         -1.0671886329        4.7590004925        0.4042410489
 H         -1.1853996915        2.2418914528       -1.4032839782
 O          2.6919709380        2.0950373972        1.5140540527
