  62
        -98.94710970
 C          1.6235342816        1.5262223516       -0.2284563201
 C          2.8091784733        1.2111020242        0.4837710367
 C          3.6077565973        0.0983347389       -0.0453416868
 C          3.1829934244       -0.5512803981       -1.1442757460
 C          3.8764583656       -1.7278328247       -1.7674572141
 C          3.3627972736       -3.0588132347       -1.1997916770
 C          3.2920549889       -3.0937973389        0.3266029453
 H          2.5468708051       -2.3718250587        0.6683830180
 H          2.9384790069       -4.0867700476        0.6123829954
 C          4.6283483276       -2.8123830363        1.0278546233
 H          4.7620340873       -3.5396675554        1.8313843780
 H          5.4520162204       -2.9512082254        0.3264269175
 C          4.7337208948       -1.4246709884        1.6627667702
 H          3.8604434232       -1.2423024507        2.2940365477
 H          5.6138043739       -1.4140950102        2.3112463665
 C          4.8741225772       -0.2525015667        0.6832793615
 H          5.1423804690        0.6353309883        1.2633049042
 H          5.6817553795       -0.4572172899       -0.0225755070
 H          2.3621834008       -3.2451749266       -1.5961546753
 H          4.0174625011       -3.8575013457       -1.5533905112
 H          3.6904052665       -1.7052975328       -2.8427644370
 H          4.9474952621       -1.6391606216       -1.5948034266
 O          2.0407078831       -0.2236194196       -1.7986900953
 C          1.2300664207        0.8161999226       -1.3624229287
 O          0.2193240286        0.9928911184       -2.0691100895
 O          3.1834122908        1.8367080148        1.5105392678
 C          0.7511880037        2.6502432438        0.3094152586
 C         -0.5106109687        2.0224243898        0.8455414793
 C         -0.5186821013        1.4851133690        2.1299661259
 C         -1.6267335374        0.8101481640        2.6077223147
 C         -2.7398519714        0.6308316396        1.8044468319
 C         -2.7330753321        1.1504964001        0.5170982947
 C         -1.6375186610        1.8656121833        0.0538298552
 H         -1.6477356778        2.2562683497       -0.9509708021
 N         -3.8291459612        0.9074695507       -0.3319450696
 S         -4.3536388623       -0.6820783023       -0.4065029029
 O         -4.8586124167       -0.8620345318       -1.7501563493
 O         -5.3090098653       -0.9158609744        0.6494778801
 C         -2.9127047255       -1.7031407457       -0.1317411646
 C         -1.7778282262       -1.4842655987       -0.8868996904
 C         -0.6625524094       -2.2743220212       -0.6605954474
 C         -0.6984050886       -3.2688884955        0.3037743087
 C         -1.8486620758       -3.4815324071        1.0476960883
 C         -2.9654155471       -2.6905973415        0.8317859885
 H         -3.8761152362       -2.8136631355        1.3953286026
 H         -1.8757307144       -4.2559538332        1.7972215290
 H          0.1757786704       -3.8772341740        0.4755366985
 H          0.2304683355       -2.0914322058       -1.2376518240
 H         -1.7479418786       -0.7007028301       -1.6278752860
 H         -3.6983449695        1.2778788197       -1.2627402483
 H         -3.6060393866        0.0889364641        2.1488410321
 H         -1.6211319677        0.4071644990        3.6088380539
 H          0.3642545235        1.5908916094        2.7444550940
 H          1.3113325879        3.0750799769        1.1526775780
 C          0.5115158139        3.7395729304       -0.7141274538
 C         -0.0471749768        5.0549089036       -0.2625363211
 C          1.3817658116        4.9589487528       -0.7030937898
 H          1.6616051001        5.3998000481       -1.6481999556
 H          2.1542803886        5.0156959500        0.0496505609
 H         -0.7504545893        5.5653319795       -0.9027062846
 H         -0.2460831104        5.1744584389        0.7917239714
 H          0.2048447175        3.3650801957       -1.6830047925
