  62
        -98.94486726
 C         -1.8654357123       -1.0719732049       -0.2073225140
 C         -3.0175169987       -1.1660086849        0.6194013175
 C         -4.2430879916       -0.5364909813        0.1141360561
 C         -4.2201862188        0.0704311264       -1.0860409838
 C         -5.3782588859        0.7968245676       -1.7046591383
 C         -5.3682969962        2.2843244200       -1.3254332136
 C         -5.1933933425        2.5398673435        0.1717044000
 H         -4.1967792069        2.2113134885        0.4762378549
 H         -5.2340944014        3.6207126288        0.3237231534
 C         -6.2445007995        1.8587577905        1.0593486010
 H         -6.5900854104        2.5769734745        1.8058418744
 H         -7.1094373612        1.5753082483        0.4584947374
 C         -5.7335626117        0.6347761553        1.8217775647
 H         -6.4793250248        0.3684605076        2.5754944130
 H         -4.8117407396        0.8911328588        2.3502205734
 C         -5.4720370816       -0.6171013594        0.9749651242
 H         -6.3523503369       -0.8417940250        0.3692702155
 H         -5.3034014076       -1.4525017187        1.6606874320
 H         -6.3029251211        2.7335248153       -1.6662101743
 H         -4.5451597478        2.7713380034       -1.8536340538
 H         -5.3012280481        0.7073041575       -2.7896176905
 H         -6.3070431098        0.3339571030       -1.3767965315
 O         -3.1079189952        0.1277139866       -1.8579713591
 C         -1.9047527079       -0.4248961180       -1.4422711561
 O         -0.9813875023       -0.2639420520       -2.2669610611
 O         -3.0188409309       -1.7599454132        1.7303135035
 C         -0.5991452720       -1.7226541218        0.3245828049
 C          0.3463664280       -0.7073347679        0.9203889112
 C          0.7000102283       -0.7595221546        2.2633294463
 C          1.5944427996        0.1541404921        2.7946186389
 C          2.1544422250        1.1364448363        1.9980138061
 C          1.8010753960        1.1997635662        0.6563578265
 C          0.9104027278        0.2798772588        0.1245884595
 H          0.6395119138        0.3372454560       -0.9191438818
 N          2.3820564833        2.1858239641       -0.1697576436
 S          4.0555410283        2.1180982066       -0.2691090370
 O          4.6240249188        2.7251189423        0.9082882444
 O          4.4012530063        2.7349234166       -1.5299716537
 C          4.4201111705        0.3723096108       -0.2914957954
 C          4.9370252335       -0.2372780050        0.8333026896
 C          5.1314653596       -1.6091016215        0.8207072642
 C          4.8022898940       -2.3432984683       -0.3077945097
 C          4.2853690122       -1.7153934964       -1.4306933202
 C          4.0873621575       -0.3446809145       -1.4235688874
 H          3.6884802121        0.1763185118       -2.2796761536
 H          4.0301851077       -2.2866989482       -2.3090399291
 H          4.9497315748       -3.4118403742       -0.3132029712
 H          5.5333592531       -2.1010301849        1.6916220070
 H          5.1782087808        0.3712128541        1.6892256441
 H          1.9836924758        2.1953266786       -1.0985149837
 H          2.8590003926        1.8526636639        2.3890950911
 H          1.8589429863        0.1004783985        3.8395301694
 H          0.2605542370       -1.5178411739        2.8945988700
 H         -0.9388448726       -2.3790570098        1.1367201137
 C          0.1244022602       -2.5691268592       -0.7056964710
 C          1.0684694506       -3.6329458600       -0.2355724623
 C         -0.2410485606       -4.0137816910       -0.8572107519
 H         -0.2406752051       -4.4429375006       -1.8479374860
 H         -1.0183964054       -4.4024969251       -0.2155196197
 H          1.9735193576       -3.8004571091       -0.7977856320
 H          1.1808683729       -3.7652321742        0.8295442484
 H          0.3833376119       -2.0252474876       -1.6044665402
