  62
        -98.93448984
 C          1.6747574286        0.1180311691        0.9386917994
 C          2.8965242234        0.8053364367        0.7448211662
 C          4.0811733377       -0.0300898361        0.4707283607
 C          3.9554200531       -1.3653552064        0.4001992504
 C          5.0252731515       -2.4022669014        0.1654532502
 C          6.0762537585       -2.1071992895       -0.9135583580
 C          5.5669646781       -1.2925317231       -2.1115445289
 H          5.8463359519       -1.8056737591       -3.0336702933
 H          4.4773905881       -1.2336720825       -2.0889775003
 C          6.1527546914        0.1205275924       -2.1652845782
 H          7.2185360700        0.0671246247       -1.9322259721
 H          6.0603736551        0.5003509540       -3.1856862276
 C          5.4892446719        1.1407652287       -1.2411761772
 H          4.4851957948        1.3729134466       -1.6063810132
 H          6.0688826704        2.0658087660       -1.2898000833
 C          5.3628616281        0.7154189324        0.2308583468
 H          5.3037972465        1.6225366470        0.8382944602
 H          6.2281222492        0.1400755903        0.5507035152
 H          6.4490175710       -3.0719847188       -1.2618583561
 H          6.9227852254       -1.5880894849       -0.4661892405
 H          5.5324465306       -2.5883540573        1.1166855618
 H          4.4823353861       -3.3146118200       -0.0927765101
 O          2.7560662486       -1.9876892312        0.5789455526
 C          1.6032316054       -1.2753328460        0.8477219028
 O          0.5874755833       -1.9853754535        0.9897012012
 O          3.0269932800        2.0569270847        0.8001571074
 C          0.3564372307        0.8098423020        1.2437238456
 C         -0.3030199703        1.3398874403       -0.0071018450
 C          0.3070143897        2.3044858226       -0.8019307543
 C         -0.3353442352        2.7889071935       -1.9263600787
 C         -1.6011022873        2.3427333927       -2.2645774661
 C         -2.2195481857        1.3802137840       -1.4758085635
 C         -1.5602859538        0.8753794564       -0.3639602752
 H         -2.0372550429        0.1142064239        0.2344346357
 N         -3.4973437038        0.9003745945       -1.7936135322
 S         -4.5931621108        0.5498662494       -0.5782068650
 O         -5.8858822408        0.6425629941       -1.2225754020
 O         -4.3959799174        1.3946262431        0.5760981880
 C         -4.2774300463       -1.1521805067       -0.1665765451
 C         -4.0546876775       -1.5098484015        1.1478568624
 C         -3.8318698564       -2.8432352305        1.4522091400
 C         -3.8373047111       -3.7909176321        0.4409386956
 C         -4.0668467733       -3.4162772428       -0.8743201056
 C         -4.2908752472       -2.0849205293       -1.1844144731
 H         -4.4768352970       -1.7564194980       -2.1933890926
 H         -4.0694538362       -4.1576824016       -1.6571212217
 H         -3.6597064432       -4.8273770836        0.6807835250
 H         -3.6496280665       -3.1358665145        2.4739005109
 H         -4.0537890145       -0.7400650913        1.9040292258
 H         -3.9386128446        1.3487971201       -2.5830633192
 H         -2.1076344704        2.7347991693       -3.1336376576
 H          0.1485981010        3.5340503816       -2.5398605363
 H          1.2871007691        2.6654638276       -0.5306859336
 H         -0.2983917463        0.0273627261        1.6511080414
 C          0.4717637978        1.9167144992        2.2756079593
 C         -0.7807107685        2.4253707639        2.9217690874
 C          0.1962889909        1.6113962640        3.7153321531
 H          0.7878261803        2.1080566428        4.4698273238
 H         -0.0727023843        0.5962924972        3.9696019105
 H         -0.8583033554        3.4814889897        3.1308943494
 H         -1.7170129917        1.9708180328        2.6310405948
 H          1.2518781265        2.6327472662        2.0546023595
