  62
        -98.93910349
 C         -2.4210199693       -1.2644216400       -0.0996915295
 C         -3.3686808376       -0.7825738286        0.8386081810
 C         -4.2077181891        0.3511921005        0.4169152820
 C         -4.0354330305        0.8643060663       -0.8133341932
 C         -4.7377785231        2.0470721127       -1.4204087886
 C         -3.9213697148        3.3327829252       -1.2048291396
 C         -4.1947514603        4.0557202059        0.1136159170
 H         -3.4644578899        4.8639331903        0.1969340855
 H         -5.1861613818        4.5118238544        0.0733741855
 C         -4.1077533515        3.1835464214        1.3688881643
 H         -3.2369495608        2.5282860353        1.3008947883
 H         -3.9471412142        3.8435522211        2.2235795195
 C         -5.3751704008        2.3512057304        1.6147271334
 H         -6.1716175813        2.7170119850        0.9670075865
 H         -5.7146584045        2.5059760832        2.6408600376
 C         -5.2118565566        0.8355945323        1.4270374534
 H         -4.8923987146        0.3845206389        2.3715595646
 H         -6.1867968132        0.3990341340        1.1864448951
 H         -2.8610436480        3.0725883496       -1.2692668822
 H         -4.1362076755        4.0255057549       -2.0211953861
 H         -4.8035757591        1.8531588991       -2.4930617317
 H         -5.7420050823        2.1469197509       -1.0194029707
 O         -3.1143947813        0.3732119763       -1.6857291778
 C         -2.2809886433       -0.6831107127       -1.3593966147
 O         -1.4929064035       -0.9955328021       -2.2748675464
 O         -3.5073410771       -1.2818360189        1.9871932609
 C         -1.5308022449       -2.4160589522        0.3422522298
 C         -0.1646385360       -1.8694310985        0.6792296456
 C          0.1638866812       -1.5735834937        1.9982151746
 C          1.3874024703       -1.0091165078        2.3109326395
 C          2.3035763301       -0.7185372342        1.3154647578
 C          1.9777334423       -0.9948561911       -0.0054797865
 C          0.7599008385       -1.5828413307       -0.3148038338
 H          0.5079264140       -1.7716332745       -1.3470651393
 N          2.8923949678       -0.6734549352       -1.0278767576
 S          3.4102359313        0.9257801741       -1.0901903439
 O          2.4308926722        1.8253369607       -0.5234669478
 O          3.7784234198        1.1581879977       -2.4699604780
 C          4.8871386376        0.9225093609       -0.0941329650
 C          4.9948616198        1.7767448552        0.9856987982
 C          6.1560034604        1.7562992179        1.7429803871
 C          7.1832733063        0.8875499028        1.4079728327
 C          7.0605376878        0.0380005290        0.3183823044
 C          5.9028795549        0.0538529787       -0.4429327689
 H          5.7675113341       -0.5862306411       -1.2986327835
 H          7.8615506055       -0.6359743602        0.0608453993
 H          8.0848906117        0.8726749935        1.9996947607
 H          6.2529663581        2.4161851009        2.5901224648
 H          4.1671430324        2.4303014128        1.2112178650
 H          2.5714768815       -0.9621150716       -1.9419652321
 H          3.2547703436       -0.2691500152        1.5498750777
 H          1.6290981955       -0.7884197525        3.3394784474
 H         -0.5604154573       -1.7727791555        2.7750747022
 H         -1.9831107751       -2.7867760703        1.2715575202
 C         -1.4842700985       -3.5526693926       -0.6576983749
 C         -0.9717646936       -4.8885558434       -0.2122678566
 C         -2.4303956001       -4.7037091913       -0.5010450625
 H         -2.8431693809       -5.1541334730       -1.3912777645
 H         -3.1170756348       -4.6766513847        0.3323238644
 H         -0.3798045542       -5.4694582497       -0.9026398757
 H         -0.6682187774       -4.9859120069        0.8190090155
 H         -1.2590628314       -3.2358996642       -1.6677766253
