  62
        -98.93937535
 C          2.1255897910       -0.4598908987        1.0141601662
 C          2.9281085833        0.7056682009        0.9329491258
 C          4.3389362786        0.4870703742        0.5707869156
 C          4.7840709151       -0.7614674324        0.3466929202
 C          6.1765421980       -1.1133583096       -0.0883318385
 C          6.2837114798       -1.1615503508       -1.6189382106
 C          5.6973509603        0.0651588605       -2.3178284970
 H          5.8576114031       -0.0645964035       -3.3903649259
 H          4.6172372933        0.0850735220       -2.1550352525
 C          6.3030892358        1.4021151007       -1.8681057024
 H          7.2564177495        1.2271919138       -1.3681148927
 H          6.5079802834        2.0084740761       -2.7529595339
 C          5.3983155653        2.2343173371       -0.9576249399
 H          5.8252764482        3.2377070460       -0.8799746225
 H          4.4109311686        2.3333729223       -1.4151921973
 C          5.2168798312        1.7030686463        0.4698933598
 H          4.7169679641        2.4824252145        1.0524363154
 H          6.1935874410        1.5114461238        0.9185259023
 H          7.3361824268       -1.2682698549       -1.8880303264
 H          5.7503434565       -2.0460346211       -1.9751890368
 H          6.4250181223       -2.0961906183        0.3158138967
 H          6.8734867605       -0.3799112744        0.3124883455
 O          3.9878813655       -1.8572689627        0.4452925366
 C          2.6485030977       -1.7326881577        0.7693310156
 O          2.0324173092       -2.8171773677        0.8181427284
 O          2.5103580665        1.8724650977        1.1432053210
 C          0.6494056457       -0.4265240697        1.3721214271
 C         -0.2076739169       -0.2180790325        0.1489525958
 C          0.0852773824        0.7752865535       -0.7812757894
 C         -0.7114622353        0.9498795746       -1.8975618217
 C         -1.8285305943        0.1564918896       -2.0956405602
 C         -2.1358949040       -0.8303923165       -1.1679274787
 C         -1.3197281166       -1.0204065896       -0.0607831329
 H         -1.5680555498       -1.8015582430        0.6415216276
 N         -3.2801524561       -1.6419178623       -1.3182544644
 S         -4.4748619037       -1.4767309588       -0.1546691227
 O         -3.9404212084       -1.8129827916        1.1386384126
 O         -5.5844727975       -2.2721921566       -0.6278848895
 C         -4.8996625182        0.2553322895       -0.2171141175
 C         -4.1226614295        1.1581313611        0.4809225104
 C         -4.4027232895        2.5107335042        0.3681535128
 C         -5.4483173221        2.9347388403       -0.4376723724
 C         -6.2211341615        2.0152924279       -1.1310393776
 C         -5.9427042255        0.6619672956       -1.0262791924
 H         -6.5196984563       -0.0877211678       -1.5433900683
 H         -7.0357535982        2.3484004213       -1.7537707320
 H         -5.6622694213        3.9883707337       -0.5235950442
 H         -3.8007212623        3.2237012273        0.9085660486
 H         -3.3213586229        0.7934002981        1.1019508952
 H         -3.6995275537       -1.5834466785       -2.2362253179
 H         -2.4556765934        0.2972680962       -2.9631780284
 H         -0.4679074416        1.7192241862       -2.6143126587
 H          0.9381253133        1.4143526196       -0.6122382426
 H          0.4242415143       -1.4332895277        1.7589874508
 C          0.3268149681        0.5678987923        2.4818622288
 C         -0.5613429526        1.7559131887        2.2823221913
 C         -1.0493073708        0.5854087302        3.0792737781
 H         -1.1461416427        0.6903567220        4.1495125760
 H         -1.7908529253       -0.0670816779        2.6392234849
 H         -0.3023687517        2.6646487295        2.8036642703
 H         -0.9769698525        1.9209828106        1.3004900974
 H          1.1558359893        0.6949994378        3.1694641759
