  62
        -98.93710308
 C         -1.6549814070       -1.0314883937        0.0003325977
 C         -2.8600802736       -1.0312707687        0.7522618299
 C         -4.0426380065       -0.4511432235        0.1046446991
 C         -3.9430176377        0.0258152799       -1.1486262622
 C         -5.0532819968        0.5984384625       -1.9892248687
 C         -5.6835014690        1.9103766988       -1.4837215489
 C         -6.9342707781        1.7177898057       -0.6172386073
 H         -7.6663236855        2.4833108192       -0.8825691621
 H         -7.3858131670        0.7553877105       -0.8612191353
 C         -6.7186168556        1.8122106263        0.8962356454
 H         -6.6273620965        2.8636350528        1.1785292428
 H         -7.6112949833        1.4172539568        1.3861087326
 C         -5.4906829317        1.0837458371        1.4432339722
 H         -5.5652454058        1.0614464035        2.5322994100
 H         -4.5893205199        1.6554536491        1.2087286410
 C         -5.3035485088       -0.3508521240        0.9124299202
 H         -5.1947431186       -1.0453314406        1.7478365645
 H         -6.1643435315       -0.6574138532        0.3199352471
 H         -4.9335337000        2.4916712391       -0.9476131748
 H         -5.9666631923        2.4854789918       -2.3668329992
 H         -4.6130350980        0.7709892411       -2.9735307808
 H         -5.8334350844       -0.1580152486       -2.1010048201
 O         -2.7734063662        0.0012449647       -1.8402165074
 C         -1.6047825543       -0.5054267173       -1.2903072042
 O         -0.6247089403       -0.4189655843       -2.0587230456
 O         -2.9448176714       -1.5119501135        1.9136066554
 C         -0.4396812030       -1.6448350786        0.6747983625
 C          0.4854779517       -0.6016689122        1.2533258185
 C          0.8412203870       -0.6232828236        2.5965919253
 C          1.7263568971        0.3100809496        3.1090485702
 C          2.2717123650        1.2863090105        2.2941774799
 C          1.9140116449        1.3202418461        0.9532602777
 C          1.0359829251        0.3782839563        0.4396097599
 H          0.7730267884        0.4066732270       -0.6074572933
 N          2.4781611598        2.3035720351        0.1057422636
 S          4.1157103456        2.0876129231       -0.1885504786
 O          4.8446879511        2.3740518060        1.0207437868
 O          4.4270339091        2.9122935860       -1.3337737443
 C          4.2616975721        0.3590092913       -0.6001316767
 C          4.5218321206       -0.5556944683        0.4002865244
 C          4.5435936123       -1.9039670897        0.0829473539
 C          4.3027470980       -2.3107745520       -1.2202069672
 C          4.0390672370       -1.3797465011       -2.2128306371
 C          4.0115641651       -0.0305322642       -1.9004908151
 H          3.8112650200        0.7246323409       -2.6440578211
 H          3.8469602024       -1.6993066839       -3.2246526510
 H          4.3227587403       -3.3607930551       -1.4675408118
 H          4.7428157894       -2.6313993074        0.8531704289
 H          4.7061892031       -0.1974300750        1.3996664805
 H          1.9970069771        2.3613463622       -0.7818891895
 H          2.9744522444        2.0125861853        2.6693079863
 H          1.9938588803        0.2783289173        4.1541823761
 H          0.4123346201       -1.3742433467        3.2435336847
 H         -0.8469045752       -2.2311061462        1.5093318964
 C          0.3447305561       -2.5776781810       -0.2289857050
 C          1.1473334876       -3.6813190462        0.3882524067
 C         -0.1016784908       -3.9998556243       -0.3762835717
 H         -0.0134948992       -4.4683238402       -1.3448102805
 H         -0.9766235046       -4.3077771118        0.1777994839
 H          2.0981959210       -3.9318764293       -0.0539725036
 H          1.1201273873       -3.7787111290        1.4626931524
 H          0.7486531266       -2.0878273302       -1.1055518210
