  62
        -98.94474929
 C         -1.8279003923       -0.0796150320        0.1334090983
 C         -2.8417296419       -0.8629644437        0.7348131271
 C         -4.1790743449       -0.2577039990        0.7806451727
 C         -4.3569864534        0.9807289226        0.2851518768
 C         -5.6750944556        1.6954842525        0.2204603114
 C         -6.3891698072        1.4231604625       -1.1108921767
 C         -6.4588233032       -0.0580061623       -1.4827792823
 H         -7.0098671042       -0.1315173056       -2.4229054516
 H         -5.4477969153       -0.4250765249       -1.6739496191
 C         -7.1294479455       -0.9468733720       -0.4260204267
 H         -7.7177999993       -0.3318660149        0.2558918869
 H         -7.8212891969       -1.6263154761       -0.9283157250
 C         -6.1608216141       -1.8136567707        0.3806218182
 H         -5.5055096803       -2.3616220484       -0.3011093029
 H         -6.7465841282       -2.5514440441        0.9353277207
 C         -5.2853277834       -1.0680827133        1.3957420323
 H         -5.9130271197       -0.4430232566        2.0340423845
 H         -4.7939180298       -1.8171416737        2.0235464502
 H         -7.3989884787        1.8332376621       -1.0511960484
 H         -5.8546124326        1.9505994176       -1.9044169478
 H         -6.2989980923        1.3732779279        1.0518881554
 H         -5.4897363138        2.7671553723        0.3104906982
 O         -3.3531079384        1.7128958875       -0.2621184087
 C         -2.0669101714        1.2015810661       -0.3633667619
 O         -1.2489761897        1.9726812444       -0.8997378941
 O         -2.6359748677       -2.0102724688        1.2142436942
 C         -0.4262490183       -0.6538542871        0.0246953505
 C          0.5589927145        0.2523266100        0.7178467873
 C          0.2963962756        0.6370320328        2.0314213874
 C          1.1496843230        1.4881407524        2.7039400536
 C          2.2933020288        1.9646111130        2.0863318474
 C          2.5709446779        1.5789326659        0.7813936493
 C          1.7119380362        0.7189637316        0.1074444035
 H          1.9451046909        0.4514989332       -0.9093766336
 N          3.7199372152        2.0504967727        0.1323107778
 S          4.5650228031        1.0713125559       -0.9181794830
 O          5.9001348109        1.6311515997       -0.9337753414
 O          3.9034681526        0.9981202566       -2.1963450881
 C          4.5935158963       -0.5416397379       -0.1535473379
 C          4.9684153794       -0.6453435672        1.1717031585
 C          4.9940601442       -1.8968942768        1.7648038862
 C          4.6516132236       -3.0196174385        1.0265543573
 C          4.2867343633       -2.9003615195       -0.3050336041
 C          4.2559468980       -1.6499012943       -0.9017748106
 H          3.9717975423       -1.5108693706       -1.9320274629
 H          4.0235848750       -3.7736589558       -0.8804088353
 H          4.6704968101       -3.9928840653        1.4911164252
 H          5.2793059744       -1.9931875151        2.7999909069
 H          5.2373543082        0.2418746888        1.7210223251
 H          4.3299471491        2.6234888319        0.6956137580
 H          2.9573812496        2.6391643892        2.6049232130
 H          0.9261508910        1.7839593223        3.7178234752
 H         -0.5988611490        0.2670454298        2.5122893072
 H         -0.4595506844       -1.6081207298        0.5713322338
 C         -0.0923161643       -0.9360604145       -1.4243873699
 C          0.8524994521       -2.0421463667       -1.7822283405
 C         -0.6138347460       -2.1936394524       -2.0508064108
 H         -0.9604180356       -2.1563759008       -3.0728024381
 H         -1.1843093184       -2.8596668744       -1.4199383637
 H          1.5130005767       -1.8961925732       -2.6236007494
 H          1.2829947943       -2.6117836260       -0.9728221611
 H         -0.0855839120       -0.0395291336       -2.0351777767
