  62
        -98.94198094
 C         -1.2315688798       -0.8748530992        0.3749581309
 C         -2.0563645298       -0.6861251399       -0.7572704192
 C         -3.0266109699        0.4208568300       -0.6787787099
 C         -3.0333828700        1.2114471107        0.4082787597
 C         -3.9671943901        2.3528866407        0.7015179690
 C         -5.1675209101        1.8717867711        1.5345785992
 C         -6.3428998700        1.3340924105        0.7191067695
 H         -7.0594699400        0.9081452909        1.4250688897
 H         -6.8369344401        2.1657083402        0.2123674790
 C         -5.9865442599        0.2696625200       -0.3220959999
 H         -6.8966704098       -0.2854993403       -0.5570331696
 H         -5.2754576798       -0.4397770497        0.1047514305
 C         -5.4183752699        0.8610674593       -1.6208912002
 H         -5.5989752700        1.9359554792       -1.6306024209
 H         -5.9617955498        0.4484568087       -2.4733753200
 C         -3.9270776799        0.5876588193       -1.8722886200
 H         -3.8162365497       -0.3455633011       -2.4336318295
 H         -3.5191784799        1.3820482889       -2.5067600305
 H         -4.8100258400        1.0992392216        2.2202268997
 H         -5.5290476502        2.7047131714        2.1409885687
 H         -3.3986533502        3.0763417511        1.2901682386
 H         -4.2911789201        2.8305889102       -0.2184629013
 O         -2.1811197200        1.0291177713        1.4541120198
 C         -1.2605596299       -0.0014097186        1.4611268804
 O         -0.5312445899       -0.0369670479        2.4743349305
 H          0.8338894301        0.3410227806       -0.3459637897
 C          1.2808545202       -0.4738335097       -0.8938926692
 C          0.8362257503       -1.7702274396       -0.6760117085
 C          1.4038301504       -2.7976165900       -1.4192096679
 C          2.3817593104       -2.5206478005       -2.3592601780
 C          2.8324318203       -1.2284902105       -2.5608708187
 C          2.2732230202       -0.1944513802       -1.8186734593
 N          2.6956526501        1.1335672198       -1.9813698001
 S          2.7615393100        2.1472593106       -0.6526223907
 O          1.4352738799        2.5556181207       -0.2611424510
 O          3.6502613399        3.2125198104       -1.0671993613
 C          3.5484174400        1.1759985314        0.6206810299
 C          4.8963274300        0.9122214614        0.4624056901
 C          5.5434187701        0.1226898120        1.3975947606
 C          4.8331840701       -0.3951715374        2.4705902809
 C          3.4837627301       -0.1177811675        2.6180111307
 C          2.8301803900        0.6757043519        1.6869471702
 H          1.7789170900        0.8979204019        1.7880087900
 H          2.9222654601       -0.5142950970        3.4491318209
 H          5.3331012201       -1.0152394170        3.1978468413
 H          6.5947721801       -0.0884913279        1.2874604308
 H          5.4148732900        1.3439998010       -0.3782116001
 H          3.4888380001        1.2591371195       -2.5926513501
 H          3.5997365903       -1.0176844309       -3.2896147088
 H          2.8071333505       -3.3260646208       -2.9382796575
 H          1.0757953505       -3.8128691299       -1.2679540573
 C         -0.2057819697       -1.9924324291        0.3948987316
 H          0.3038254203       -1.9146836885        1.3677119616
 C         -0.8834889796       -3.3442362292        0.3077276324
 C         -0.2828152195       -4.5363322188        0.9883946431
 C         -1.5274688396       -3.9085192285        1.5374757027
 H         -2.4640124595       -4.4356134187        1.4341338730
 H         -1.4521029996       -3.3287319780        2.4463585824
 H          0.6378780705       -4.3910066983        1.5329349830
 H         -0.3671801194       -5.5001384590        0.5093871237
 H         -1.3930462495       -3.4931014398       -0.6369186275
 O         -1.9961057297       -1.4101035705       -1.7861186088
