  62
        -98.93455688
 C          1.9872751333        0.3443949061        0.6943204516
 C          2.6452933282        0.3711246977       -0.5612660355
 C          3.8299027142       -0.4965155913       -0.6798957960
 C          4.1920081947       -1.2756204552        0.3538796301
 C          5.4041872157       -2.1597802373        0.3831071725
 C          6.6217494672       -1.4153804528        0.9488771308
 C          6.8578728322       -0.0450449965        0.3137250686
 H          6.0293049925        0.6166578799        0.5761181351
 H          7.7590352251        0.3724473740        0.7680437025
 C          7.0199103651       -0.0719139121       -1.2125670477
 H          7.2535385865       -1.0848307904       -1.5425966016
 H          7.8667742559        0.5610559761       -1.4860059736
 C          5.8073120920        0.4463594107       -1.9880488276
 H          5.5126164621        1.4232082330       -1.5967291283
 H          6.1057517363        0.5875164777       -3.0302272495
 C          4.5741841723       -0.4658402932       -1.9851789638
 H          3.8678988176       -0.0732587263       -2.7225836781
 H          4.8614733175       -1.4745664483       -2.2890005953
 H          6.4734728850       -1.2746334893        2.0221441168
 H          7.5047519307       -2.0413619302        0.8076586123
 H          5.6157172226       -2.5106542393       -0.6251718433
 H          5.1872629420       -3.0200779115        1.0187670186
 O          3.5053427394       -1.3125442776        1.5248863466
 C          2.3961240266       -0.5100630358        1.7214552613
 O          1.8603355039       -0.6486902285        2.8416748151
 O          2.2822950704        1.0699593794       -1.5384447321
 C          0.7517673177        1.1905516120        0.9880978711
 C         -0.3497148624        0.7804026072        0.0413557307
 C         -0.6309413626        1.3586969019       -1.1903544499
 C         -1.6329377752        0.8450707284       -1.9974144315
 C         -2.3759667806       -0.2526668355       -1.6069089803
 C         -2.1039899635       -0.8436288458       -0.3795144478
 C         -1.1083429589       -0.3206438638        0.4310230786
 H         -0.8941499002       -0.7942923002        1.3811743885
 N         -2.8484729944       -1.9599520347        0.0354945811
 S         -4.5037792221       -1.9386294162       -0.1996464755
 O         -5.0431756707       -2.8017708253        0.8277752504
 O         -4.8068128404       -2.3146094668       -1.5583242940
 C         -4.9959780658       -0.2463731538        0.0811264371
 C         -5.6163622798        0.4665246497       -0.9243285033
 C         -5.9640841745        1.7879187872       -0.6929886694
 C         -5.6821505857        2.3715665767        0.5321125761
 C         -5.0608328777        1.6411223234        1.5337965989
 C         -4.7139962091        0.3189883758        1.3091362285
 H         -4.2349959590       -0.2766805857        2.0697842375
 H         -4.8419542283        2.0966701245        2.4861912216
 H         -5.9480701108        3.4016390407        0.7094326188
 H         -6.4492514794        2.3574298431       -1.4691418699
 H         -5.8131060597       -0.0252419267       -1.8631003475
 H         -2.6046806976       -2.3026818682        0.9526297281
 H         -3.1439836034       -0.6717025343       -2.2364862568
 H         -1.8298076084        1.3055105680       -2.9535624046
 H         -0.0476527227        2.1864069508       -1.5498368848
 H          0.4332479483        0.8561676668        1.9873623302
 C          1.0965084823        2.6632893173        1.1663085534
 C          1.4984106870        3.6202687391        0.0863365277
 C          0.1815202337        3.7872911956        0.7823355347
 H          0.0714790721        4.6107541140        1.4722400138
 H         -0.7196161099        3.5410249779        0.2435504224
 H          2.2897343599        4.3197056208        0.3183792339
 H          1.5336430219        3.2652411808       -0.9296555057
 H          1.6322811459        2.7903072124        2.1048097078
