  62
        -98.94408636
 C          1.8170447114        1.1396915603       -0.0782392511
 C          2.2510422811        0.0134056599       -0.8178833206
 C          3.7078564810       -0.1565229802       -0.9261784311
 C          4.5233220913        0.7444931401       -0.3487824719
 C          6.0215023613        0.6584556601       -0.3321662425
 C          6.5200388117       -0.0943666391        0.9094827778
 C          5.8091596418       -1.4258482990        1.1523658188
 H          6.2626073922       -1.8800994185        2.0360336189
 H          4.7608844819       -1.2331385089        1.3920491391
 C          5.8847395814       -2.4097617897       -0.0234577706
 H          6.6907203711       -2.1197693201       -0.6985508811
 H          6.1276264715       -3.4013467095        0.3641996599
 C          4.5848860111       -2.5489232801       -0.8182066901
 H          3.7549598314       -2.7479461097       -0.1350665396
 H          4.6799608608       -3.4160030805       -1.4774625396
 C          4.2076189108       -1.3475782506       -1.6940881106
 H          5.0537272305       -1.0727502110       -2.3273221911
 H          3.3798659305       -1.6552720610       -2.3401094601
 H          7.5922769617       -0.2670214292        0.8007796775
 H          6.3648553621        0.5407580314        1.7846197075
 H          6.3612720809        0.1559843096       -1.2356475323
 H          6.4244722113        1.6724605202       -0.3175091032
 O          4.0677619515        1.8228587405        0.3385247276
 C          2.7096981416        2.0413857306        0.5015368080
 O          2.4276318118        3.0538235410        1.1735603975
 H         -1.7538697389       -0.2357466501       -0.7295382790
 C         -1.3531111385       -0.5022697496        0.2336901810
 C         -0.3036849983        0.2135102308        0.7862885202
 C          0.1998833322       -0.1836926085        2.0235749003
 C         -0.3212721776       -1.2803690281        2.6803532511
 C         -1.3627278278       -2.0006759785        2.1212755019
 C         -1.8744676083       -1.6112726792        0.8894511519
 N         -2.9185030785       -2.3334565995        0.3028456227
 S         -3.9987919289       -1.6532527601       -0.7603715373
 O         -5.1329944889       -2.5533013401       -0.7325844463
 O         -3.3964770094       -1.4498178109       -2.0539762776
 C         -4.4711836186       -0.0793589997       -0.0621168080
 C         -4.6541317390        0.9911640598       -0.9132488886
 C         -5.0535354488        2.2098653201       -0.3884185791
 C         -5.2616404182        2.3368277609        0.9757997509
 C         -5.0778367579        1.2514359114        1.8184752814
 C         -4.6831353581        0.0294857911        1.2978931220
 H         -4.5381103279       -0.8281106586        1.9339296424
 H         -5.2403418875        1.3530248020        2.8794249014
 H         -5.5686312581        3.2867948911        1.3840053804
 H         -5.1971793190        3.0541123097       -1.0435733496
 H         -4.4742931194        0.8482452492       -1.9668146386
 H         -3.3200570883       -3.0702786792        0.8614660033
 H         -1.7667600876       -2.8645091682        2.6267096625
 H          0.0839067628       -1.5789028176        3.6354889711
 H          1.0168497023        0.3785864917        2.4558245996
 C          0.3316974914        1.4012143904        0.1072431793
 H          0.2591399617        2.2625463408        0.7868371388
 C         -0.3051290391        1.7722523496       -1.2144416807
 C         -1.5381557391        2.6223838296       -1.2399504907
 C         -0.2241386893        3.1948119693       -1.6774475215
 H         -0.0671690397        3.3870420187       -2.7282546217
 H          0.2726275110        3.8990934497       -1.0259593721
 H         -1.9446024387        2.9432389801       -0.2927901107
 H         -2.2834913394        2.4194693192       -1.9934379103
 H         -0.2031245794        0.9961719392       -1.9646908803
 O          1.4683185209       -0.8097825105       -1.3605161099
