  62
        -98.93868466
 C          1.9626212800        1.1233833102       -0.0614942690
 C          2.5889755496        0.4357417095        1.0093506308
 C          3.2208466194       -0.8584592305        0.7055829704
 C          3.1728290296       -1.3311895098       -0.5535244698
 C          3.6614518995       -2.6329559397       -1.1539665903
 C          4.5952653091       -3.5512430502       -0.3703507005
 C          6.0026387392       -2.9946847306       -0.1550632698
 H          6.5414754889       -3.6738954311        0.5088517200
 H          6.5218396395       -2.9871247103       -1.1166936397
 C          6.0715900793       -1.5805568409        0.4157273009
 H          7.1260611494       -1.3020706012        0.4919153913
 H          5.6033039197       -0.8815431305       -0.2801823289
 C          5.4436459390       -1.4018845914        1.7962070108
 H          5.6945938991       -0.3965560417        2.1446699113
 H          5.8818400986       -2.1172122719        2.4947287405
 C          3.9128859889       -1.5411698011        1.8505747903
 H          3.5601290088       -1.0445525615        2.7591135704
 H          3.6123194987       -2.5844388911        1.9124525397
 H          4.6890978791       -4.4708201300       -0.9543741209
 H          4.1411889888       -3.8262690106        0.5770841893
 H          2.7543064695       -3.1929842494       -1.4089874708
 H          4.1341510499       -2.3663059593       -2.1048562401
 O          2.5650322601       -0.6324658792       -1.5549009097
 C          1.9398873303        0.5849034208       -1.3462015293
 O          1.4296019507        1.0580817914       -2.3836615192
 O          2.6134917694        0.8876888190        2.1852804111
 C          1.2647416302        2.4293032102        0.2866977214
 C         -0.2018270499        2.1518799204        0.5149509109
 C         -0.7761770402        2.2939173899        1.7725952308
 C         -2.1039100204        1.9644475601        1.9842488603
 C         -2.8793963502        1.4681496207        0.9510218198
 C         -2.3108906199        1.3183509412       -0.3064311401
 C         -0.9915667697        1.6777583510       -0.5234308995
 H         -0.5578184195        1.5412311514       -1.5032989195
 N         -3.0803925497        0.7377349719       -1.3496607806
 S         -3.1169927301       -0.9467663582       -1.2256376114
 O         -1.8614563303       -1.4694673687       -0.7298119013
 O         -3.5441584898       -1.4277132175       -2.5216834517
 C         -4.4048494505       -1.2312738285       -0.0311811719
 C         -4.0757752909       -1.6745859292        1.2345331880
 C         -5.0896264212       -1.8710662494        2.1592870076
 C         -6.4063533111       -1.6215103789        1.8032229974
 C         -6.7200861806       -1.1782351483        0.5267595475
 C         -5.7114395303       -0.9796050280       -0.4024489921
 H         -5.9076669300       -0.6425549975       -1.4065434520
 H         -7.7452147405       -0.9864813279        0.2538360573
 H         -7.1926714513       -1.7742846491        2.5254707971
 H         -4.8468172616       -2.2152808499        3.1517456376
 H         -3.0372158010       -1.8509709495        1.4654740382
 H         -2.7083152994        0.9664287822       -2.2628999604
 H         -3.9102440203        1.1956937809        1.1084724694
 H         -2.5356943206        2.0826588097        2.9661080802
 H         -0.1654162704        2.6434845794        2.5920917111
 H          1.7004966700        2.7444041196        1.2442036917
 C          1.4769925707        3.5356184306       -0.7259247780
 C          1.2643104209        4.9566289604       -0.3004437474
 C          2.6500316709        4.4546100803       -0.5714164372
 H          3.1593909912        4.7910908306       -1.4618618669
 H          3.3067632006        4.2889075297        0.2701060629
 H          0.8189416412        5.6424748609       -1.0044365672
 H          0.9820853207        5.1335753200        0.7262279226
 H          1.1924113209        3.2618458311       -1.7333738782
