  62
        -98.94176413
 C          0.5783724562        1.4756936899        0.0333955895
 C          1.3434013484        0.7622314131        0.9820467558
 C          2.4148554850       -0.1019785939        0.4532660133
 C          2.5730048820       -0.2118518702       -0.8790129426
 C          3.5616390083       -1.0017595790       -1.7117692036
 C          4.7305802214       -1.7267884602       -1.0513723951
 C          5.8238718541       -0.8020887428       -0.5127984730
 H          6.5292950745       -1.4006636101        0.0672995525
 H          6.3671278173       -0.3806322521       -1.3623717552
 C          5.3411484781        0.3666180582        0.3430530047
 H          6.2122128430        0.9755178528        0.6002140132
 H          4.6692109991        0.9979580578       -0.2415538600
 C          4.6468228207       -0.0206447619        1.6464602126
 H          5.3091423064       -0.6513734350        2.2430510472
 H          4.4634453316        0.8979138687        2.2109818665
 C          3.3011244687       -0.7446059335        1.4817030252
 H          2.7625161682       -0.6773516107        2.4316156045
 H          3.4519470849       -1.7976431597        1.2628726034
 H          4.3706015358       -2.3910654126       -0.2716579661
 H          5.1850734239       -2.3568257994       -1.8205903895
 H          2.9624561727       -1.7294813332       -2.2677648601
 H          3.9537022510       -0.3000778235       -2.4553194909
 O          1.7481617279        0.4322986970       -1.7571442594
 C          0.7610616565        1.3056536207       -1.3374039993
 O          0.1300785855        1.8519204700       -2.2614801738
 O          1.1474900941        0.8469292093        2.2254217558
 C         -0.4895248868        2.4422892924        0.5093190120
 C         -1.8306795184        2.0724283448       -0.0728451933
 C         -2.7100014086        2.9969594731       -0.6210578814
 C         -3.9216490611        2.5824014027       -1.1462563718
 C         -4.2842698740        1.2487074359       -1.1281113033
 C         -3.4143014415        0.3159544999       -0.5737031511
 C         -2.2036282691        0.7345107261       -0.0481559693
 H         -1.5317674865        0.0093409879        0.3886186529
 N         -3.7299438739       -1.0492603223       -0.5715573637
 S         -3.1795748607       -2.0550730446        0.6378639917
 O         -3.9916600124       -3.2471310244        0.5072702118
 O         -3.2190101184       -1.4118819209        1.9309486635
 C         -1.5046485390       -2.4636156761        0.1956489714
 C         -0.5971847676       -2.6997680736        1.2088694783
 C          0.6859638366       -3.1044939673        0.8806495211
 C          1.0400598934       -3.2598975688       -0.4499022993
 C          0.1211251883       -3.0067402889       -1.4563739977
 C         -1.1671481071       -2.6112915725       -1.1346450719
 H         -1.9048532003       -2.4089376720       -1.8935167552
 H          0.4008308301       -3.1194047614       -2.4918325823
 H          2.0373584361       -3.5824097607       -0.7034443023
 H          1.3998743109       -3.2958851236        1.6653081309
 H         -0.9085218354       -2.5524053702        2.2309667967
 H         -4.6570448379       -1.2879037400       -0.8900652213
 H         -5.2269622129        0.9265028397       -1.5433134054
 H         -4.5940558386        3.3095038561       -1.5757473277
 H         -2.4450754736        4.0411295608       -0.6452660232
 H         -0.5435359959        2.3108055909        1.6008461709
 C         -0.0718553645        3.8672743200        0.2082447281
 C         -0.5218307852        4.9932893454        1.0890847482
 C          0.9068571042        4.5427747909        1.1196386121
 H          1.6608578801        5.1820090636        0.6853181130
 H          1.2502912141        3.9836336389        1.9778650318
 H         -0.7471388745        5.9462592980        0.6344331283
 H         -1.1480683399        4.7475663902        1.9334804459
 H          0.0242399745        4.0538980147       -0.8557768825
