  62
        -98.94299747
 C         -0.9188087270       -1.7397669673        0.0712755974
 C         -1.7848213393       -1.1314278600        1.0118676325
 C         -3.0110720201       -0.5401587699        0.4634450183
 C         -3.2190011415       -0.5506490644       -0.8661669513
 C         -4.4486864370       -0.0509270756       -1.5762587332
 C         -4.4851151158        1.4652647757       -1.8086735367
 C         -4.7586625858        2.3071554824       -0.5622401043
 H         -4.9929936437        3.3173420919       -0.9032693011
 H         -5.6426881047        1.9237356239       -0.0518963130
 C         -3.5807474868        2.3789991917        0.4184961844
 H         -3.4430536238        3.4131847926        0.7394102486
 H         -2.6648676315        2.0711634908       -0.0905438444
 C         -3.7469744455        1.5366509937        1.6824381777
 H         -4.5725662957        1.9286018600        2.2809357224
 H         -2.8321979433        1.6190972840        2.2746842181
 C         -4.0034812822        0.0482780792        1.4215503222
 H         -3.9015501883       -0.4872163709        2.3690313317
 H         -5.0172678267       -0.0972943814        1.0476787437
 H         -5.2776053091        1.6613425907       -2.5345643937
 H         -3.5384866330        1.7735974824       -2.2575552990
 H         -5.3361808432       -0.3540449977       -1.0188702053
 H         -4.4642956299       -0.5489889972       -2.5481167715
 O         -2.3212612566       -1.0749814626       -1.7428829016
 C         -1.1727800067       -1.7164387352       -1.2996691028
 O         -0.4807849459       -2.2120606543       -2.2084823972
 O         -1.5586053172       -1.1089968898        2.2517592577
 C          0.2740763302       -2.5276238786        0.5813201777
 C          1.5402567465       -2.1908015476       -0.1640863347
 C          2.3287399028       -3.1535410264       -0.7815307300
 C          3.4929223200       -2.7948376181       -1.4364680799
 C          3.9092663016       -1.4781196442       -1.4630220985
 C          3.1354686207       -0.5062823097       -0.8380613892
 C          1.9551817410       -0.8640974010       -0.2063143121
 H          1.3533362596       -0.1029526335        0.2716667265
 N          3.5437241142        0.8362821039       -0.8512684356
 S          3.3659100261        1.7921960723        0.5086406041
 O          4.4315013151        2.7681953760        0.4071404953
 O          3.3381959355        1.0062674924        1.7190215958
 C          1.8210609893        2.6363792509        0.2627322826
 C          0.8905461770        2.6840956854        1.2804936542
 C         -0.2698773757        3.4180983611        1.0923885859
 C         -0.4800345803        4.0825657704       -0.1058006393
 C          0.4603092767        4.0162940479       -1.1226671810
 C          1.6258584344        3.2913592702       -0.9373553437
 H          2.3862266180        3.2269194995       -1.6976401645
 H          0.2902115477        4.5311895538       -2.0545244371
 H         -1.3825105267        4.6555191404       -0.2480922494
 H         -1.0031226170        3.4667807876        1.8814660654
 H          1.0883267967        2.1465149908        2.1948931204
 H          4.4326288111        0.9980846368       -1.3023021785
 H          4.8240364669       -1.1978836055       -1.9632922277
 H          4.0890160480       -3.5526010263       -1.9220403369
 H          2.0297598172       -4.1880671836       -0.7587703238
 H          0.4065573015       -2.2188810611        1.6293392739
 C         -0.0691931132       -4.0049208428        0.5556171572
 C          0.5810293455       -4.9518844536        1.5184827424
 C         -0.8619808738       -4.5851850951        1.6866217151
 H         -1.6137428977       -5.3269222721        1.4613746155
 H         -1.1343009041       -3.9188799073        2.4917855029
 H          0.8191401990       -5.9493995404        1.1812036003
 H          1.2938846630       -4.5404104946        2.2170172075
 H         -0.2949462057       -4.3627569186       -0.4435833188
