  62
        -98.93279507
 C         -2.2872323159       -0.6124739030        0.6027734652
 C         -3.3610244159       -0.9174822061       -0.2651135413
 C         -4.6449795875       -0.2276379485       -0.0128617682
 C         -4.7252969451        0.6578488765        0.9965225670
 C         -5.8999874004        1.5017849450        1.4157579393
 C         -6.1464922073        2.6909754245        0.4742916523
 C         -6.0775369535        2.3560499467       -1.0130041246
 H         -6.1724099883        3.2927349043       -1.5686208143
 H         -5.0934908127        1.9426996163       -1.2411856865
 C         -7.1593379878        1.4026081633       -1.5147918798
 H         -8.1414674519        1.8296038746       -1.3003003380
 H         -7.0554410866        1.3384016740       -2.6008798669
 C         -7.1111994008       -0.0193050531       -0.9506981966
 H         -7.7540912003       -0.6409061475       -1.5807371133
 H         -7.5293397442       -0.0613414425        0.0513846753
 C         -5.7286886360       -0.6630777096       -0.9704818110
 H         -5.8434734760       -1.7416244951       -0.8089507748
 H         -5.3028374888       -0.5680243646       -1.9756781525
 H         -5.3868569812        3.4488204926        0.6811745930
 H         -7.1226410820        3.1187902367        0.7092195893
 H         -5.6657131467        1.8884820320        2.4101141687
 H         -6.7905195317        0.8863382132        1.5019754078
 O         -3.6561637658        0.9392334326        1.7965455678
 C         -2.4368531397        0.3184544954        1.6350580199
 O         -1.5715935076        0.6674726164        2.4651394997
 O         -3.2876078939       -1.7287576976       -1.2269550346
 C         -0.9162233402       -1.2606902491        0.5106139972
 C         -0.0387927341       -0.6286940857       -0.5436675924
 C         -0.4155431173       -0.5859488580       -1.8819780090
 C          0.4343529566       -0.0457396339       -2.8295949503
 C          1.6809317532        0.4352914811       -2.4694963932
 C          2.0648732122        0.3992859128       -1.1343986221
 C          1.1989559888       -0.1184389700       -0.1815153473
 H          1.5069128752       -0.1262286678        0.8543161611
 N          3.3182081704        0.8850872709       -0.7288135624
 S          4.1147030587        0.0604918129        0.5124633322
 O          3.9360000932       -1.3645852404        0.3515230469
 O          3.7050158845        0.6162016161        1.7780868682
 C          5.8073723316        0.5099075363        0.1754670388
 C          6.5821438128       -0.3281126958       -0.6045218274
 C          7.8881992773        0.0382005904       -0.8889496002
 C          8.3938868400        1.2307342208       -0.3934288128
 C          7.6046540062        2.0607401122        0.3889355361
 C          6.2978550396        1.7004283094        0.6776025448
 H          5.6501494688        2.3077697305        1.2883550013
 H          8.0023632382        2.9851595559        0.7755016451
 H          9.4106709696        1.5135530787       -0.6156404115
 H          8.5052568027       -0.6065527131       -1.4937448691
 H          6.1497873283       -1.2500891740       -0.9587928953
 H          3.9334998963        1.0882063087       -1.5046848248
 H          2.3497981341        0.8399372350       -3.2140454965
 H          0.1295095639       -0.0146533965       -3.8648555066
 H         -1.3770964210       -0.9831882048       -2.1682146352
 H         -0.4380953334       -1.0757611932        1.4831169584
 C         -0.9716265445       -2.7615549421        0.2866550614
 C          0.2589554698       -3.5732480512        0.5530715166
 C         -0.9260675631       -3.6849681333        1.4642236048
 H         -1.5165158445       -4.5884556452        1.4340491640
 H         -0.8573899967       -3.2399746695        2.4467235416
 H          0.4803728951       -4.4003367645       -0.1041052802
 H          1.1372442711       -3.0535965295        0.9095651880
 H         -1.5928104120       -3.0462756075       -0.5521820114
