  62
        -98.93964730
 C         -1.7984590544       -1.3426684127        0.3915344929
 C         -1.6442246688       -0.1694359196       -0.3832118418
 C         -2.5010119758        0.9755011018       -0.0172538947
 C         -3.3749508757        0.8526707711        0.9990979689
 C         -4.3407528618        1.8467310046        1.6104399357
 C         -4.6777244028        3.1525024600        0.8951003880
 C         -5.4708746132        2.9859568797       -0.4007840195
 H         -5.5650071920        3.9671160527       -0.8712730240
 H         -6.4768099838        2.6402346524       -0.1494943530
 C         -4.8852769624        2.0032367905       -1.4117054054
 H         -5.5516624408        1.9795950341       -2.2781730602
 H         -4.8786495333        0.9983189303       -0.9845515563
 C         -3.4825110510        2.3393211987       -1.9134313747
 H         -3.4677044153        3.3565451810       -2.3094578083
 H         -3.2558712006        1.6555902797       -2.7356580833
 C         -2.3572367021        2.2006953868       -0.8736146381
 H         -2.2737571528        3.0936295960       -0.2582465038
 H         -1.4127035247        2.0852350792       -1.4130945231
 H         -3.7749753242        3.7302186991        0.7190533185
 H         -5.2940389339        3.7343002802        1.5860773082
 H         -3.9321237874        2.0890201476        2.5981114926
 H         -5.2655322205        1.2892104943        1.7907638260
 O         -3.4806871902       -0.3017623197        1.7224697037
 C         -2.7068199953       -1.4156017197        1.4443997983
 O         -2.9144695228       -2.3882553647        2.1986597483
 O         -0.8213152043       -0.0683279991       -1.3277497471
 C         -0.9607656356       -2.5697734411        0.0881272935
 C          0.5156921356       -2.2532068578        0.1290249832
 C          1.4373669444       -2.8882840635       -0.6952350494
 C          2.7844683144       -2.5799591277       -0.6154366527
 C          3.2422825105       -1.6233460854        0.2716389407
 C          2.3277614291       -0.9749203107        1.0917352029
 C          0.9828413195       -1.3063017409        1.0302960317
 H          0.2797697237       -0.8029335350        1.6829803446
 N          2.7724421619        0.0308478626        1.9658479920
 S          3.8767157544        1.1422251295        1.3731225771
 O          5.2122881205        0.6253946680        1.5486361062
 O          3.5880516683        2.3726520472        2.0782007541
 C          3.5352262553        1.3192767147       -0.3703315768
 C          4.5723815796        1.1938278776       -1.2728265604
 C          4.3036830149        1.3208764498       -2.6259313250
 C          3.0062756865        1.5594373864       -3.0518391750
 C          1.9759184947        1.6850149520       -2.1331379733
 C          2.2407322882        1.5707212866       -0.7786319626
 H          1.4485588806        1.6581244082       -0.0518703278
 H          0.9610219074        1.8442751489       -2.4595128124
 H          2.7930175626        1.6451417651       -4.1056171094
 H          5.1034146250        1.2249709566       -3.3425833480
 H          5.5625898757        0.9920567773       -0.8974455047
 H          2.0299494654        0.4927251808        2.4698489389
 H          4.2871605763       -1.3675918879        0.3440017379
 H          3.4875727927       -3.0862585196       -1.2585538553
 H          1.0989197133       -3.6267420934       -1.4032187746
 H         -1.1765826715       -3.2908340868        0.8910464317
 C         -1.3946164427       -3.1714886829       -1.2349557516
 C         -1.3841078644       -4.6557726902       -1.4396635473
 C         -2.6860498712       -3.9290012522       -1.2922372308
 H         -3.3165443895       -3.8119578954       -2.1608750990
 H         -3.2343871892       -4.0406732071       -0.3676169428
 H         -1.1229716716       -5.0405769124       -2.4140595346
 H         -1.0570074532       -5.2740772834       -0.6172162870
 H         -1.1499510308       -2.5352909553       -2.0777208030
