  62
        -98.94947765
 C         -1.0409081456       -1.7315733846        0.1079680879
 C         -1.6809604053       -0.9646799941        1.1099863381
 C         -2.8487119934       -0.1889978553        0.6778964077
 C         -3.2344047912       -0.2279995251       -0.6104841451
 C         -4.4045670820        0.5068620080       -1.2057768378
 C         -4.0988448774        1.9668122469       -1.5682010202
 C         -4.0065828183        2.9268791187       -0.3813957908
 H         -4.0344813870        3.9397437101       -0.7883106816
 H         -4.8845220961        2.8053465493        0.2546775454
 C         -2.7311250673        2.7734683023        0.4586921979
 H         -1.9733308165        2.2462766805       -0.1272520595
 H         -2.3197941898        3.7628486616        0.6758565205
 C         -2.9354072344        2.0659126134        1.7986813057
 H         -1.9641494987        1.9802977953        2.2920455976
 H         -3.5804256218        2.6763892149        2.4352293755
 C         -3.5469825936        0.6628103278        1.6958044724
 H         -4.6086075460        0.7351040015        1.4596023390
 H         -3.4372385213        0.1719392087        2.6663543936
 H         -3.1621322597        2.0000963995       -2.1309163859
 H         -4.8976147743        2.3136056755       -2.2283907880
 H         -4.6729283712       -0.0266303101       -2.1202649750
 H         -5.2520217541        0.4699522312       -0.5201079592
 O         -2.5974177244       -0.9827985894       -1.5442351085
 C         -1.4810846968       -1.7397779867       -1.2162612302
 O         -0.9890186494       -2.3683270850       -2.1730029667
 O         -1.2952980702       -0.9301943400        2.3100708399
 C          0.1933565388       -2.5299816545        0.4746971033
 C          1.4147031219       -2.0589423770       -0.2804969279
 C          2.5272640489       -2.8720716934       -0.4709132261
 C          3.6409628717       -2.3909489382       -1.1363640904
 C          3.6821747956       -1.0922371217       -1.6121448487
 C          2.5758889337       -0.2716131396       -1.4274832127
 C          1.4613850930       -0.7609979793       -0.7649897719
 H          0.5999740827       -0.1223168625       -0.6603406522
 N          2.5592801698        1.0462806921       -1.9023291290
 S          1.6594408348        2.2226951402       -1.1332151130
 O          0.2521362714        2.0303260919       -1.3789604890
 O          2.2199973716        3.4655816756       -1.6196343054
 C          2.0396138707        2.0287006557        0.5981678579
 C          3.3250863271        2.3232475461        1.0107428363
 C          3.6652486818        2.1268022267        2.3387783489
 C          2.7225743650        1.6312317157        3.2277551245
 C          1.4353908724        1.3465813541        2.8006415477
 C          1.0888436027        1.5505750481        1.4746530343
 H          0.0947648864        1.3332642499        1.1175588107
 H          0.6953589192        0.9481856474        3.4771118278
 H          2.9904213561        1.4668551748        4.2595155424
 H          4.6638254867        2.3533666114        2.6760265052
 H          4.0283199818        2.7115007424        0.2920855693
 H          3.4353819657        1.3951486107       -2.2597032530
 H          4.5519047326       -0.7201613235       -2.1311166208
 H          4.4940674380       -3.0356438976       -1.2832318235
 H          2.5166106661       -3.8855009695       -0.1038997459
 H          0.3629211074       -2.3277065922        1.5440940305
 C         -0.0584426903       -4.0156433079        0.2985887758
 C          0.5156894061       -5.0097707279        1.2623888865
 C         -0.9533152318       -4.7165861317        1.2754825955
 H         -1.6375209807       -5.4645169013        0.9039622330
 H         -1.3507516863       -4.1284584674        2.0899292503
 H          0.8417182577       -5.9661246012        0.8818931673
 H          1.1091987208       -4.6315017024        2.0810702848
 H         -0.1391096039       -4.2997781226       -0.7446353341
