  62
        -98.93937935
 C         -1.8624914618       -1.3236723804        0.3498603269
 C         -1.6684538695       -0.1057176799       -0.3420872595
 C         -2.6520698713        0.9590202802       -0.0689234284
 C         -3.6456888784        0.7270523459        0.8060469265
 C         -4.7743015267        1.6512609308        1.1698759907
 C         -6.0116176696        1.3595817480        0.3039136208
 C         -6.0501073387        2.0971483526       -1.0341586302
 H         -6.8968293107        1.7004164724       -1.5991735270
 H         -6.2455043379        3.1564248960       -0.8540517542
 C         -4.7866764729        1.9723164234       -1.8900395696
 H         -4.4292583629        0.9411041463       -1.8715081344
 H         -5.0597399052        2.2004035606       -2.9223248454
 C         -3.6642598108        2.9250627753       -1.4525864809
 H         -4.0774155951        3.6678532693       -0.7702872456
 H         -3.2991738360        3.4741185966       -2.3230417495
 C         -2.4418786696        2.2539473464       -0.8052601837
 H         -1.7081136987        2.0131040626       -1.5810883779
 H         -1.9665931917        2.9679583103       -0.1246169417
 H         -6.0532256368        0.2809194421        0.1315650242
 H         -6.9063674343        1.6340385244        0.8663596217
 H         -5.0236829567        1.4451538341        2.2127847898
 H         -4.4679612919        2.6892020922        1.0804860466
 O         -3.7854967419       -0.4573746469        1.4620388906
 C         -2.9072593442       -1.5038658970        1.2572675258
 O         -3.1537108659       -2.5252430642        1.9295259794
 H          1.3274092923       -2.0158041100       -1.4011549692
 C          1.4941358977       -1.8359669953       -0.3512710911
 C          0.4745281992       -2.0516227252        0.5598772357
 C          0.7178673072       -1.7920063672        1.9065026620
 C          1.9523125841       -1.3357112891        2.3270441334
 C          2.9670149314       -1.1102781120        1.4120809204
 C          2.7282232686       -1.3531684320        0.0666471831
 N          3.7361637635       -1.0956264975       -0.8760605464
 S          4.6680332725        0.2779103700       -0.6869891571
 O          5.0878691538        0.6356642418       -2.0246071224
 O          5.7356540761        0.0098088763        0.2460867641
 C          3.6007401153        1.5425507326       -0.0133540850
 C          2.3427313465        1.7321342431       -0.5492136037
 C          1.5373448584        2.7305469852       -0.0259228961
 C          1.9993672663        3.5237783853        1.0122692955
 C          3.2674114419        3.3246336903        1.5360446211
 C          4.0756745166        2.3242452675        1.0212336194
 H          5.0636455576        2.1278307384        1.4054798254
 H          3.6261568158        3.9417278923        2.3440800703
 H          1.3667176057        4.2990432357        1.4151900702
 H          0.5476341527        2.8673171912       -0.4309887578
 H          1.9790495059        1.1038129672       -1.3460810891
 H          3.4401987242       -1.2083869448       -1.8345709861
 H          3.9352955090       -0.7512355198        1.7217427026
 H          2.1273761466       -1.1458656498        3.3750715462
 H         -0.0817325171       -1.9480520198        2.6180302474
 C         -0.9082635901       -2.4888358655        0.1449061795
 H         -1.2404466312       -3.2770406045        0.8340956428
 C         -0.9953028362       -3.0134721411       -1.2727873637
 C         -0.4869218566       -4.3870904083       -1.5891892132
 C         -1.9607423643       -4.1156157068       -1.5836715368
 H         -2.4847200827       -4.0908441632       -2.5275200254
 H         -2.5519324921       -4.5052911005       -0.7677431313
 H         -0.0746521171       -4.9649327286       -0.7759198507
 H          0.0003213807       -4.5535792003       -2.5380351695
 H         -0.8739478746       -2.2392485162       -2.0212026387
 O         -0.7308417718        0.0897991587       -1.1588015248
