  62
        -98.93717712
 C         -1.8692937402       -0.4539399888       -0.5902685606
 C         -2.9681412100       -1.2393982994       -0.1668324211
 C         -4.2874926701       -0.5985111796       -0.2406152805
 C         -4.3884501904        0.6625342908       -0.6978753895
 C         -5.6567710906        1.4501539307       -0.8971155388
 C         -6.4568667106        1.7947484395        0.3738388515
 C         -7.5686430303        0.7939294591        0.7124048908
 H         -8.4432589604        1.3463662486        1.0619539213
 H         -7.8682295603        0.2800092297       -0.2018008895
 C         -7.2311198600       -0.2382665317        1.7925159500
 H         -7.9894911299       -1.0231909618        1.7535609895
 H         -7.3002367001        0.2369446475        2.7737065004
 C         -5.8477012699       -0.8807090013        1.6916074794
 H         -5.0878052700       -0.1694367215        2.0239202899
 H         -5.8102933397       -1.7204309419        2.3883818688
 C         -5.4667191900       -1.3679238402        0.2800675290
 H         -5.1633681097       -2.4160682402        0.3169554782
 H         -6.3129282200       -1.2785146198       -0.3994582509
 H         -6.9174723308        2.7688010496        0.2011444323
 H         -5.7731467905        1.9063662090        1.2149393015
 H         -5.3472165508        2.3769413311       -1.3846667682
 H         -6.2998871106        0.9064358911       -1.5930248592
 O         -3.3042398906        1.3854467913       -1.0920666591
 C         -2.0220306005        0.8579188915       -1.0386133596
 O         -1.1322344207        1.6429668919       -1.4170378891
 H          1.7439790696        0.5406648622       -1.0035737001
 C          1.4574492097        0.4851875113        0.0323987798
 C          0.3697437998       -0.2757779592        0.4280180193
 C          0.0170758100       -0.2892020803        1.7763531394
 C          0.7299136999        0.4482446992        2.7003759699
 C          1.8154946297        1.2091578497        2.3010685504
 C          2.1755666596        1.2312042908        0.9593334603
 N          3.2543111594        2.0197324413        0.5305854009
 S          4.3816300094        1.4542247324       -0.5626221197
 O          5.4511430192        2.4263579225       -0.5093738290
 O          3.7784785294        1.2368335932       -1.8518873798
 C          4.9413229398       -0.0904709580        0.1316678791
 C          5.9727582599       -0.0623469485        1.0504743890
 C          6.3798966301       -1.2482761589        1.6392125281
 C          5.7453001203       -2.4359417888        1.3075934672
 C          4.7103054703       -2.4467910683        0.3854509773
 C          4.3008655100       -1.2641762779       -0.2106948417
 H          3.5032666499       -1.2363186975       -0.9343052417
 H          4.2186967204       -3.3709143682        0.1263392567
 H          6.0603530906       -3.3592219191        1.7676623665
 H          7.1873787002       -1.2432774993        2.3535029380
 H          6.4447483997        0.8814115614        1.2708285697
 H          3.7039667194        2.5470631408        1.2643977312
 H          2.3702179797        1.7932807292        3.0196321708
 H          0.4422763600        0.4310263683        3.7407430199
 H         -0.8350659199       -0.8797120207        2.0841641790
 C         -0.4779154501       -1.0628326586       -0.5394531712
 H         -0.6214328098       -2.0723479889       -0.1279172519
 C          0.1105591498       -1.1848238174       -1.9280549313
 C          1.1625380500       -2.2158357570       -2.2038525822
 C         -0.2211017300       -2.3909864869       -2.7526285422
 H         -0.3781438201       -2.2622938061       -3.8130655521
 H         -0.8583926998       -3.1391101473       -2.3042172027
 H          1.4608797802       -2.8532034876       -1.3849509827
 H          1.9590549499       -1.9673117863       -2.8898235921
 H          0.1791356496       -0.2352341370       -2.4469518806
 O         -2.8526574197       -2.4239491897        0.2471870080
