  62
        -98.94248667
 C          0.6712394261        1.3645068313        0.5576348565
 C          1.2219212678        0.8440449547       -0.6345604806
 C          2.2717110746       -0.1840771157       -0.4866474190
 C          2.5663942986       -0.6349672104        0.7464210281
 C          3.6351006014       -1.6163945661        1.1499413658
 C          5.0399583718       -0.9918456797        1.1355326017
 C          5.3529791078       -0.1451008772       -0.0953595999
 H          4.6246849114        0.6646724861       -0.1669293547
 H          6.3329398941        0.3141220966        0.0597362129
 C          5.3982600152       -0.9078409404       -1.4175448616
 H          5.7301939273       -0.2036689306       -2.1847093769
 H          6.1478897761       -1.6992450030       -1.3484262643
 C          4.0763454743       -1.5256841108       -1.8799952819
 H          4.1976143224       -1.8004353844       -2.9316526297
 H          3.8672964248       -2.4452721186       -1.3410254638
 C          2.8775876698       -0.5851620842       -1.8093922946
 H          3.1282800660        0.3505097450       -2.3218901715
 H          2.0529705431       -1.0159912047       -2.3881445742
 H          5.7743880791       -1.7941762282        1.2252288719
 H          5.1341276042       -0.3491793551        2.0144633158
 H          3.4067283817       -1.9280729816        2.1716677691
 H          3.6021493805       -2.4959890804        0.5150384598
 O          1.9185831029       -0.1847438373        1.8612026861
 C          0.9926975173        0.8373440547        1.8065786924
 O          0.5313285591        1.1812373080        2.9152375926
 H         -1.8824985187        0.4404039966        0.9127266897
 C         -2.2112544396        1.0030794733        0.0501024143
 C         -1.5129882866        2.1458293657       -0.3225575314
 C         -1.9632222056        2.8770737770       -1.4133951656
 C         -3.0761134463        2.4591519459       -2.1222590710
 C         -3.7620668936        1.3161514588       -1.7573590784
 C         -3.3281553608        0.5860091657       -0.6551649180
 N         -4.0248835371       -0.5570225757       -0.2460527878
 S         -3.3567203894       -1.7213878975        0.7272684182
 O         -4.2540194127       -2.8498210857        0.5854430938
 O         -3.1902964705       -1.2257583179        2.0710574151
 C         -1.7763528687       -2.1707018898        0.0328754780
 C         -0.7699118593       -2.5443673503        0.8996905918
 C          0.4217377180       -3.0237700262        0.3816183451
 C          0.5894835354       -3.1121403014       -0.9909812424
 C         -0.4227356995       -2.7144837210       -1.8495334491
 C         -1.6216404525       -2.2468094956       -1.3364829188
 H         -2.4264288892       -1.9445479513       -1.9863487679
 H         -0.2858577498       -2.7741329539       -2.9174021988
 H          1.5135896932       -3.4941566130       -1.3943452181
 H          1.2073785357       -3.3300286387        1.0530571342
 H         -0.9365223928       -2.4490610635        1.9615998935
 H         -4.7258155612       -0.9098889592       -0.8788514942
 H         -4.6294030574        0.9910632501       -2.3108139385
 H         -3.4120471516        3.0308914400       -2.9738268990
 H         -1.4400138573        3.7689801337       -1.7147707617
 C         -0.3070047339        2.5239796216        0.5002198895
 H         -0.6432818185        2.6872934430        1.5348674385
 C          0.4000351498        3.7717887686        0.0124440159
 C         -0.1065214878        5.1260567564        0.4048069949
 C          1.1663203575        4.6012538332        0.9965931192
 H          2.1017770548        5.0406947332        0.6841508171
 H          1.1594809458        4.2789287440        2.0280686226
 H         -0.0426007335        5.9299379724       -0.3127857230
 H         -0.9795911554        5.1680503491        1.0383992094
 H          0.8276119687        3.6498363912       -0.9760164966
 O          0.8827339973        1.2374446095       -1.7807447600
