  62
        -98.94001407
 C         -2.4924249132       -1.2668884577       -0.1339752471
 C         -2.2725394371       -0.0368465323       -0.7998422395
 C         -3.4615903083        0.8070187808       -0.9931033923
 C         -4.6575253021        0.3746797247       -0.5537496795
 C         -5.9332439995        1.1618583698       -0.6250423145
 C         -6.1379227307        1.9993947524        0.6453698223
 C         -4.9122404546        2.8181225164        1.0511646524
 H         -5.1828032285        3.3886602910        1.9422224061
 H         -4.1060307813        2.1384857465        1.3374015457
 C         -4.4016273571        3.7768910310       -0.0334360194
 H         -5.1788160353        3.9387877788       -0.7811417193
 H         -4.1863462914        4.7437912210        0.4260917867
 C         -3.1182529146        3.3206743011       -0.7302449200
 H         -2.7310144413        4.1590242789       -1.3157589733
 H         -2.3606325294        3.0690402275        0.0170155124
 C         -3.2650421618        2.1275067544       -1.6829332628
 H         -4.0738881277        2.3180851278       -2.3913632165
 H         -2.3298223824        2.0355600706       -2.2436765421
 H         -6.9862765573        2.6670879068        0.4853340264
 H         -6.3856709020        1.3247947427        1.4679883661
 H         -5.9059741942        1.8087983259       -1.4995352330
 H         -6.7643483519        0.4621749160       -0.7263398329
 O         -4.8315020298       -0.8224319418        0.0622971873
 C         -3.7572763682       -1.6630355782        0.3015875508
 O         -4.0520921397       -2.7164858110        0.9013492006
 O         -1.1450189223        0.3430365612       -1.2132561668
 C         -1.3270900834       -2.1987995944        0.1532268360
 C         -0.3426642274       -1.4839862507        1.0470629408
 C         -0.7766141145       -1.0725188596        2.3056420025
 C          0.0696825002       -0.3890380085        3.1557190438
 C          1.3631239614       -0.0915623191        2.7625736508
 C          1.8081729330       -0.5013524486        1.5119217824
 C          0.9596942772       -1.2048861379        0.6662915247
 H          1.3252339440       -1.5025506674       -0.3012004069
 N          3.1345117439       -0.2425250339        1.1124642428
 S          3.4243388842        0.3604712449       -0.4411764662
 O          2.7126687772        1.6038736946       -0.6368440085
 O          3.1964761063       -0.6831167345       -1.4065125323
 C          5.1751152227        0.6812884885       -0.3124204249
 C          5.6174377394        1.9713847422       -0.0900519294
 C          6.9785817399        2.2026997661        0.0330420810
 C          7.8695541361        1.1447593523       -0.0648131305
 C          7.4108101664       -0.1449561218       -0.2891077112
 C          6.0513539034       -0.3823938970       -0.4144288592
 H          5.6492915165       -1.3649614834       -0.5978756039
 H          8.1069049666       -0.9644137493       -0.3673935507
 H          8.9282596391        1.3269528149        0.0311278371
 H          7.3377088233        3.2048241360        0.2037064368
 H          4.8881353956        2.7633927756       -0.0301341401
 H          3.6144742698        0.3451122277        1.7830915755
 H          2.0230391717        0.4532502092        3.4212222266
 H         -0.2808207818       -0.0761269401        4.1279365312
 H         -1.7935606152       -1.2940795141        2.6019660727
 H         -1.7477963097       -3.0442674745        0.7167053898
 C         -0.7241592693       -2.7238402639       -1.1314031185
 C          0.0416132477       -4.0114551417       -1.1213287214
 C         -1.3109375895       -3.9485338789       -1.7635049991
 H         -1.3750786951       -3.9914347557       -2.8404365516
 H         -2.1415138763       -4.4185363345       -1.2568455295
 H          0.9107146318       -4.0958475875       -1.7560601735
 H          0.1310333723       -4.5300641398       -0.1787114456
 H         -0.3848060799       -1.9349510052       -1.7933221661
