  62
        -98.94253729
 C         -2.5558663408       -0.2504535196       -0.3310504013
 C         -2.8124606311        0.7100898306        0.6813582984
 C         -2.5415221907        2.1117358805        0.3464805584
 C         -2.0639735901        2.4102212102       -0.8747172715
 C         -1.6925090196        3.7885838901       -1.3387114215
 C         -0.2117424297        4.0901818698       -1.0727006209
 C          0.2414708196        3.7873109900        0.3560294794
 H          0.2297486994        2.7054208800        0.5128840695
 H          1.2846843797        4.1028605298        0.4335055198
 C         -0.5823464507        4.4818576603        1.4496653889
 H         -1.1287051004        5.3239470903        1.0227364086
 H          0.1040860090        4.8850272202        2.1971751092
 C         -1.5583404112        3.5672068705        2.1920388586
 H         -1.0353679415        2.6633466705        2.5154798590
 H         -1.9002630015        4.0903083707        3.0893246784
 C         -2.8052447010        3.1437620907        1.4061074381
 H         -3.5010639714        2.6776900609        2.1099263279
 H         -3.2875509606        4.0239433507        0.9757490678
 H         -0.0305844694        5.1430693398       -1.2995062209
 H          0.3926533505        3.4839296696       -1.7524614205
 H         -1.8780343291        3.8498135200       -2.4127190316
 H         -2.3198909797        4.5174015803       -0.8285903519
 O         -1.8413434298        1.4706110800       -1.8262892012
 C         -2.0512196102        0.1190825701       -1.5784745311
 O         -1.7699852699       -0.6075083601       -2.5523450909
 H         -0.1917026908       -1.4168165401       -0.7407286301
 C         -0.2729107614       -1.9715418100        0.1821511700
 C         -1.5185829317       -2.2321038697        0.7326455294
 C         -1.5869899623       -2.9644663895        1.9120061195
 C         -0.4325196427       -3.4062947296        2.5334254101
 C          0.8098888676       -3.1027416599        2.0069101606
 C          0.8874861283       -2.3773706801        0.8232826405
 N          2.1263474486       -2.0365512104        0.2563714811
 S          2.2454888092       -0.4984054005       -0.4431417091
 O          1.4906364090        0.4568633197        0.3347909904
 O          1.9244652198       -0.5983037507       -1.8445002992
 C          3.9965635692       -0.2049806108       -0.2662155584
 C          4.8608107094       -0.8908106811       -1.0996378179
 C          6.2254032694       -0.7006254914       -0.9528605673
 C          6.7008281491        0.1680033987        0.0187996128
 C          5.8216677889        0.8508320790        0.8454730623
 C          4.4549690089        0.6627820292        0.7060016617
 H          3.7325020487        1.1733012094        1.3224472413
 H          6.1937476887        1.5277918890        1.5974258924
 H          7.7633598891        0.3152700785        0.1304291733
 H          6.9113744296       -1.2284804016       -1.5954504369
 H          4.4431254096       -1.5459497111       -1.8463735380
 H          2.9067852483       -2.2278430705        0.8704006014
 H          1.7126319173       -3.4190794200        2.5070113011
 H         -0.4993414232       -3.9713592495        3.4505923201
 H         -2.5515684826       -3.1663077992        2.3531280391
 C         -2.7680834013       -1.7005034295        0.0677220788
 H         -3.5638729116       -1.6841240593        0.8263627684
 C         -3.1962542009       -2.6221034796       -1.0554910713
 C         -3.9866617413       -3.8529008794       -0.7299796315
 C         -4.6440340508       -2.7032559594       -1.4314103819
 H         -4.8960219103       -2.8043125695       -2.4760364720
 H         -5.3383524109       -2.0931777192       -0.8721429423
 H         -4.2438944118       -4.0264898692        0.3036774685
 H         -3.7878831712       -4.7523476295       -1.2918234612
 H         -2.4711898706       -2.6848305898       -1.8565337709
 O         -3.2630148017        0.4016356908        1.8188333083
