  62
        -98.93405187
 C          2.0822405326        0.5073949330        0.4337541843
 C          3.1236468128        0.6367185923       -0.5150406683
 C          4.0394760080       -0.5128120737       -0.6501049658
 C          3.8472685652       -1.6123942749        0.1003472579
 C          4.5891025147       -2.9322389669        0.1421642822
 C          5.9835450318       -3.0654924327       -0.4659881652
 C          7.0703648636       -2.2494089826        0.2323023633
 H          7.2372013063       -2.6699884350        1.2271596978
 H          7.9964279958       -2.3614337927       -0.3358810515
 C          6.7708210103       -0.7622345643        0.4041012335
 H          5.9172506625       -0.6345967104        1.0732071408
 H          7.6336139613       -0.3024223011        0.8937469586
 C          6.5064131803        0.0056389397       -0.8897626509
 H          6.4804456301        1.0694069669       -0.6395577265
 H          7.3307921170       -0.1542649843       -1.5871832256
 C          5.1853608956       -0.3321197386       -1.6039022643
 H          4.9215860450        0.5147249388       -2.2436047714
 H          5.2905946109       -1.2048476818       -2.2437258861
 H          5.9568739165       -2.8317094709       -1.5261108413
 H          6.2578272619       -4.1205970232       -0.3811072283
 H          4.6319141858       -3.2120824037        1.1995610489
 H          3.9291997115       -3.6607792314       -0.3421731223
 O          2.8113882627       -1.7021398760        0.9868922469
 C          1.9260730104       -0.6600211538        1.1845041834
 O          1.0607851438       -0.8872852401        2.0557484792
 H         -1.4808394481        0.7670491032        0.9124957147
 C         -1.2670400728        1.1606121448       -0.0705186491
 C          0.0049383983        1.6334516084       -0.3636331554
 C          0.2636075408        2.1140588943       -1.6431677855
 C         -0.7319930780        2.1139993818       -2.6026509275
 C         -1.9975744317        1.6391980143       -2.3086380120
 C         -2.2679242071        1.1600805963       -1.0317372510
 N         -3.5611962329        0.7183799235       -0.7004886345
 S         -3.7541190867       -0.5582969460        0.3859470825
 O         -3.5515497414       -0.0651592870        1.7247256495
 O         -2.9485604129       -1.6881344234       -0.0225185151
 C         -5.4862872252       -0.9044430789        0.1385946637
 C         -5.8701304442       -2.0017485929       -0.6080888750
 C         -7.2217054494       -2.2353230820       -0.8104226040
 C         -8.1605345559       -1.3703348978       -0.2690665802
 C         -7.7598734602       -0.2727351490        0.4786777315
 C         -6.4108185292       -0.0349198960        0.6866916710
 H         -6.0521283884        0.7982660188        1.2680308280
 H         -8.4926312704        0.3964350986        0.8998718861
 H         -9.2112642679       -1.5540256721       -0.4285816445
 H         -7.5359967970       -3.0894961096       -1.3882549501
 H         -5.1044095543       -2.6493401237       -1.0042560676
 H         -4.1440648898        0.5861043124       -1.5165335522
 H         -2.7727278130        1.6400477393       -3.0600287665
 H         -0.5183398727        2.4839727982       -3.5941045600
 H          1.2562746079        2.4594792732       -1.8844655085
 C          1.0680256540        1.6071405674        0.7091571714
 H          0.5763942364        1.3212658660        1.6496577820
 C          1.7076034322        2.9688331154        0.8993325127
 C          0.9349768513        4.0354429761        1.6125809820
 C          2.1183627097        3.3967405709        2.2743709761
 H          3.0238571265        3.9742334128        2.3850982310
 H          1.9383798834        2.7070376380        3.0868591685
 H          1.0258314469        5.0544273313        1.2694209305
 H         -0.0486665022        3.7781208182        1.9768671116
 H          2.3431973422        3.2677965570        0.0769995090
 O          3.3068336920        1.6553664113       -1.2314718373
