  62
        -98.94551666
 C          1.6437062529        0.9674743673        0.0972737673
 C          2.6263423314        0.6288252938        1.0564684684
 C          3.2798852290       -0.6749212169        0.8750449049
 C          2.8913446496       -1.4701849203       -0.1386751510
 C          3.5003381404       -2.8027682612       -0.4637770467
 C          4.6548651498       -2.6566101655       -1.4649394360
 C          5.6696930552       -1.5785114704       -1.0846433323
 H          5.1861074270       -0.6001673385       -1.1327139418
 H          6.4534954642       -1.5871293559       -1.8450842218
 C          6.3017439918       -1.7622160462        0.3021630192
 H          7.3778497060       -1.5946261251        0.2219604390
 H          6.1590650434       -2.7887393666        0.6420669187
 C          5.7800412896       -0.7983898681        1.3695360400
 H          5.8356276865        0.2271866239        0.9957045873
 H          6.4389312779       -0.8651127476        2.2394574265
 C          4.3495104434       -1.0561749213        1.8594183906
 H          4.1824002911       -0.4299210378        2.7410618322
 H          4.2458992698       -2.1016343082        2.1581644963
 H          4.2364646087       -2.4032946080       -2.4416637154
 H          5.1601216193       -3.6202723899       -1.5513148017
 H          2.7283008372       -3.4369619143       -0.9030876702
 H          3.8578620076       -3.2671241775        0.4534022125
 O          1.9169875157       -1.1266831812       -1.0188575258
 C          1.2794905392        0.1059490577       -0.9382112855
 O          0.4244212013        0.2991180057       -1.8192785026
 O          2.9358946844        1.3765982323        2.0240957391
 C          0.9292827775        2.3011222173        0.2111515268
 C         -0.5620356121        2.0978055846        0.3251802834
 C         -1.4904053555        2.9035063965       -0.3215642821
 C         -2.8472534622        2.6657928659       -0.1811445722
 C         -3.3088237792        1.6202526465        0.5964267274
 C         -2.3882774489        0.8073766433        1.2459912153
 C         -1.0313931297        1.0578806041        1.1178774196
 H         -0.3202569495        0.4221331177        1.6314864476
 N         -2.8429861166       -0.2782896663        2.0146421493
 S         -4.0342182372       -1.2473350852        1.3449923621
 O         -5.3283411999       -0.6800238745        1.6342844682
 O         -3.7960733634       -2.5672512642        1.8880136928
 C         -3.7553458882       -1.2295078148       -0.4175168747
 C         -4.7828591427       -0.8660960197       -1.2642181523
 C         -4.5470843589       -0.8371144012       -2.6291113204
 C         -3.2919206330       -1.1615503643       -3.1198483282
 C         -2.2704805002       -1.5284719313       -2.2572042812
 C         -2.5039908213       -1.5671548775       -0.8928515577
 H         -1.7222555691       -1.8458292259       -0.2032869981
 H         -1.2860551143       -1.7559355242       -2.6329549803
 H         -3.1030008070       -1.1260891428       -4.1810954426
 H         -5.3388108421       -0.5540881878       -3.3039648343
 H         -5.7388193921       -0.6089117334       -0.8375571787
 H         -2.1007734578       -0.8396844006        2.4056716978
 H         -4.3614855302        1.4191201297        0.7131639128
 H         -3.5558552608        3.3005196097       -0.6904159302
 H         -1.1515861854        3.7170480549       -0.9413635938
 H          1.2870155618        2.7461264941        1.1521829093
 C          1.3260873448        3.2075964826       -0.9361640146
 C          1.3918411723        4.6925820256       -0.7445933976
 C          2.6547983848        3.8982478427       -0.8819633815
 H          3.2280071249        3.9888542100       -1.7924669841
 H          3.2593316904        3.7395526635       -0.0005901972
 H          1.0999418790        5.3319259245       -1.5640652187
 H          1.1445164814        5.0835992120        0.2307887590
 H          0.9984404480        2.8270207189       -1.8970801909
