  62
        -98.93907910
 C         -2.6925341525       -0.9528457894        0.2552144414
 C         -2.4559831574       -0.1683374280       -0.8996070451
 C         -2.9111430590        1.2306148885       -0.8367595855
 C         -3.5300074713        1.6774982510        0.2691985671
 C         -4.0904829920        3.0532106635        0.5255910011
 C         -3.1927741981        4.2486784607        0.1671636636
 C         -1.6816236308        3.9850061689        0.2524825262
 H         -1.2139535581        4.7800081393        0.8370440942
 H         -1.4849412592        3.0461270972        0.7741613230
 C         -1.0006053116        3.9533346590       -1.1181963091
 H         -1.3898236191        4.7787399621       -1.7191733215
 H          0.0706252502        4.1207061525       -0.9786046502
 C         -1.1425722703        2.6476933336       -1.9013616742
 H         -0.5099194584        1.8793993890       -1.4462684019
 H         -0.7503856071        2.8190444918       -2.9070634578
 C         -2.5702986220        2.0893688990       -2.0192767085
 H         -3.2940921489        2.8893020028       -2.1583524364
 H         -2.5992049784        1.4319546373       -2.8923967782
 H         -3.4298398429        4.5920634352       -0.8389001846
 H         -3.4565653187        5.0597008561        0.8476477638
 H         -5.0381987736        3.1434214160       -0.0120683387
 H         -4.3199146989        3.0731355018        1.5933884805
 O         -3.7575134933        0.8793439737        1.3509835314
 C         -3.3180501935       -0.4339519000        1.3858688307
 O         -3.5368820634       -1.0218525520        2.4658527301
 H         -0.4807056673       -0.8014859325        1.6163152648
 C          0.0508126410       -1.4240546847        0.9047267749
 C         -0.6663665065       -2.3360909978        0.1392161926
 C          0.0281559433       -3.1278625508       -0.7644600487
 C          1.3980474268       -2.9861981908       -0.9110216353
 C          2.1021814220       -2.0595993443       -0.1642386427
 C          1.4181617617       -1.2725959747        0.7531564857
 N          2.1271185988       -0.3103595982        1.5085688946
 S          2.7281513293        0.9803187276        0.6021169288
 O          2.8529724279        2.0795727763        1.5356796703
 O          1.9223943110        1.2214220707       -0.5713668140
 C          4.3517241270        0.4220836055        0.1342926360
 C          5.2713775508        0.1907812378        1.1385954583
 C          6.5371197682       -0.2568293127        0.7959326168
 C          6.8592624960       -0.4631705289       -0.5374900862
 C          5.9250947852       -0.2234661324       -1.5337898915
 C          4.6564397671        0.2237619840       -1.1977681850
 H          3.8945166047        0.4175435739       -1.9360121579
 H          6.1776108115       -0.3843026445       -2.5695828456
 H          7.8447208980       -0.8127967515       -0.8020094771
 H          7.2663903527       -0.4439775902        1.5675497570
 H          4.9787433326        0.3694339402        2.1598192770
 H          1.5805619136        0.0596222527        2.2746136696
 H          3.1665201764       -1.9381273589       -0.2843258275
 H          1.9233651188       -3.6021267955       -1.6247757692
 H         -0.5053946547       -3.8444076446       -1.3669262169
 C         -2.1650635340       -2.3759143937        0.3218753219
 H         -2.3792731059       -2.7335662785        1.3397835377
 C         -2.8800005932       -3.2668934355       -0.6705745899
 C         -2.9946447330       -4.7383182737       -0.4109030849
 C         -4.2016145062       -3.8590948605       -0.2871720947
 H         -4.9728133282       -3.9288888947       -1.0393968203
 H         -4.5761498981       -3.6356632664        0.7014604260
 H         -2.9407379929       -5.4159734086       -1.2493809926
 H         -2.5528641587       -5.1214498051        0.4964940613
 H         -2.7588538633       -2.9312015333       -1.6937817347
 O         -1.8960455278       -0.6118675178       -1.9344099229
