  62
        -98.93641980
 C         -2.1062370695       -1.3253967284       -0.1341629463
 C         -2.5568735439       -0.1847922294       -0.8399544777
 C         -3.9432978000        0.2264814079       -0.5728321964
 C         -4.6993166066       -0.4862024365        0.2813056338
 C         -6.1435569426       -0.2380886260        0.6279574568
 C         -6.4466369062        1.0731671939        1.3785299758
 C         -6.8514819533        2.2418569237        0.4716763064
 H         -7.2606725071        1.8410106598       -0.4565112245
 H         -7.6574754763        2.7979496471        0.9548235828
 C         -5.7451716699        3.2508943036        0.1486119558
 H         -5.6013650757        3.9101376189        1.0077867907
 H         -6.0886038003        3.8682083437       -0.6843918925
 C         -4.3811588237        2.6574409668       -0.2050091400
 H         -3.7528346712        3.4577889305       -0.6012542668
 H         -3.8876222649        2.3021281625        0.7029669189
 C         -4.4269292613        1.4940574390       -1.2146771923
 H         -5.4335701787        1.3664080301       -1.6100770239
 H         -3.7517969292        1.6989186303       -2.0480586927
 H         -7.2766328785        0.8650056138        2.0555466743
 H         -5.5896134418        1.3471014409        1.9933752489
 H         -6.4414353879       -1.0827921940        1.2524625626
 H         -6.7360190924       -0.2757571486       -0.2889739428
 O         -4.2290807539       -1.5877912380        0.9284531874
 C         -2.9253552605       -2.0198917143        0.7564114359
 O         -2.6194458086       -3.0193069427        1.4376153170
 O         -1.8477140796        0.4555460067       -1.6593235452
 C         -0.6809480189       -1.8214542544       -0.3103048025
 C          0.2724854775       -0.7322907098        0.1167563538
 C          0.2277809815       -0.2937441074        1.4380612454
 C          1.0582595652        0.7191464574        1.8766568495
 C          1.9532380775        1.3186745637        1.0071973119
 C          2.0111843559        0.8836513436       -0.3093847633
 C          1.1833777703       -0.1445700094       -0.7452515317
 H          1.2377996364       -0.4644256122       -1.7736142790
 N          2.9195529195        1.4832443401       -1.1956266931
 S          4.4795690247        1.7705438964       -0.6702091292
 O          4.5137301481        2.9630150906        0.1393517876
 O          5.2831055048        1.7995422827       -1.8719672523
 C          4.8971110433        0.3507400233        0.3267881475
 C          5.1569111542        0.5041274643        1.6731014996
 C          5.4434891141       -0.6189671988        2.4327993476
 C          5.4617103958       -1.8698323106        1.8362333842
 C          5.2019767397       -2.0073603746        0.4810198543
 C          4.9154497302       -0.8881965716       -0.2830864865
 H          4.7160458578       -0.9599907452       -1.3401042684
 H          5.2188014333       -2.9815098830        0.0191886271
 H          5.6807402213       -2.7434721510        2.4296689932
 H          5.6479740380       -0.5148889229        3.4862253228
 H          5.1321138007        1.4945871158        2.0974310661
 H          2.8997355850        1.1046708763       -2.1305399797
 H          2.5939357146        2.1248083631        1.3255748903
 H          1.0068230430        1.0507919994        2.9026660749
 H         -0.4782197217       -0.7568346801        2.1143998328
 H         -0.5674065565       -2.6647773267        0.3851070809
 C         -0.4596904463       -2.3212231528       -1.7219501758
 C          0.6452647646       -3.2936717840       -2.0035606641
 C         -0.7823454409       -3.7478769421       -2.0446190595
 H         -1.2270854282       -3.9710920709       -3.0028771797
 H         -1.1480852462       -4.3688464668       -1.2398237470
 H          1.1819990350       -3.2115068177       -2.9367099564
 H          1.2524349243       -3.6118343373       -1.1698705919
 H         -0.6945597025       -1.5769940565       -2.4739926331
