  62
        -98.93523356
 C          2.3563312837        1.3998546345       -0.0049869820
 C          3.0599881797        0.6808059112        0.9928412819
 C          3.9012114620       -0.4497972540        0.5569622812
 C          3.9551835756       -0.7425040181       -0.7552735853
 C          4.7029074946       -1.8571514542       -1.4378473704
 C          4.0241179630       -3.2235519090       -1.2562831525
 C          3.5584335923       -3.5240688670        0.1658687979
 H          2.8458623372       -2.7583064323        0.4795404417
 H          3.0169167777       -4.4736925608        0.1430742164
 C          4.6720247218       -3.6440620665        1.2039807918
 H          5.3677061807       -4.4264692374        0.8929405004
 H          4.2065959027       -3.9659099719        2.1390141628
 C          5.4673442557       -2.3670413522        1.4865506289
 H          6.2056281388       -2.1820850692        0.7108812695
 H          6.0250983408       -2.5306968629        2.4130819582
 C          4.6135113709       -1.1223337903        1.7055297955
 H          3.8427549092       -1.3412657662        2.4533765472
 H          5.2391970119       -0.3436266793        2.1578907087
 H          3.1458974129       -3.2555975474       -1.9064656621
 H          4.7171325339       -3.9992337158       -1.5867821473
 H          4.7192543599       -1.6163271580       -2.5032032046
 H          5.7307351971       -1.8876005198       -1.0888691207
 O          3.2554126278       -0.0295933060       -1.6822783807
 C          2.4396077883        1.0386874984       -1.3489007156
 O          1.8700150558        1.5552446216       -2.3301861404
 O          2.9944800370        0.9756793473        2.2168494600
 C          1.4991127648        2.5619552706        0.4681306703
 C          0.0785263184        2.1087338605        0.6875139043
 C         -0.5534258701        2.2810995467        1.9127920968
 C         -1.8456774559        1.8244712501        2.1091263129
 C         -2.5314963603        1.1871662608        1.0905986717
 C         -1.9064899567        1.0064223556       -0.1363916843
 C         -0.6146590296        1.4687266660       -0.3316745491
 H         -0.1322310697        1.3220617195       -1.2875208502
 N         -2.5941449621        0.3438241475       -1.1768267750
 S         -2.9633407105       -1.2713695973       -0.8707921042
 O         -2.0092352620       -1.8637490222        0.0402033035
 O         -3.0860556399       -1.8944018901       -2.1706707824
 C         -4.5708221111       -1.1946932935       -0.1092993674
 C         -5.6120081156       -0.6591939813       -0.8423033548
 C         -6.8698748325       -0.5902123394       -0.2651124507
 C         -7.0644539992       -1.0572901924        1.0264576032
 C         -6.0094979640       -1.5954276425        1.7475429831
 C         -4.7481072340       -1.6661662759        1.1765638168
 H         -3.8962902126       -2.0707191229        1.6995518509
 H         -6.1625602079       -1.9586050736        2.7510752664
 H         -8.0444250306       -1.0022835355        1.4735683089
 H         -7.6927218846       -0.1729951995       -0.8228094887
 H         -5.4174203427       -0.3135541215       -1.8438134261
 H         -2.1072439934        0.4082242197       -2.0609723005
 H         -3.5368866667        0.8273882979        1.2373175393
 H         -2.3231222728        1.9638721184        3.0668562935
 H         -0.0172497767        2.7592685111        2.7193679858
 H          1.9156865816        2.8290104149        1.4520946127
 C          1.6122990395        3.7912548996       -0.4233832063
 C          0.4827710325        4.3362681015       -1.2405020624
 C          0.9396986938        5.0696430086       -0.0176921606
 H          1.4760974433        5.9985595790       -0.1368653268
 H          0.2987254423        5.0351761180        0.8503882818
 H          0.7220441262        4.7400096760       -2.2125639607
 H         -0.4688035421        3.8299088903       -1.2047415014
 H          2.6016039247        3.8804806158       -0.8609535807
