  62
        -98.94181722
 C         -2.5008192937       -1.1829588315       -0.3663224438
 C         -3.5900755509       -0.8632957628        0.4868393621
 C         -4.4130974050        0.2870704009        0.0951944676
 C         -4.1040966840        0.9617229630       -1.0268355563
 C         -4.8249886181        2.1808577694       -1.5227612376
 C         -4.1841248494        3.4660530743       -0.9808937516
 C         -3.9473751670        3.4491172448        0.5294002508
 H         -3.1919863272        2.6947963208        0.7637833138
 H         -3.5243287052        4.4183701002        0.8026087254
 C         -5.2064880580        3.1853239575        1.3672490465
 H         -5.2249385181        3.8906632298        2.2006395159
 H         -6.0969236155        3.3710364090        0.7656598910
 C         -5.2852325656        1.7814541132        1.9701244035
 H         -4.3517733995        1.5548796088        2.4917613230
 H         -6.0859125639        1.7760259822        2.7143809049
 C         -5.5732014054        0.6451681369        0.9807499864
 H         -6.4523471056        0.8923178448        0.3823437101
 H         -5.7940898795       -0.2541332707        1.5629137597
 H         -3.2203374021        3.6088340324       -1.4756638172
 H         -4.8274638082        4.3086965243       -1.2407780301
 H         -4.7725911896        2.1914147517       -2.6127669363
 H         -5.8685460943        2.1269026606       -1.2187710370
 O         -3.0586030059        0.6263144479       -1.8223438464
 C         -2.2236593318       -0.4381688380       -1.5125687697
 O         -1.3048611164       -0.6016506746       -2.3406089366
 O         -3.8652017722       -1.5192674057        1.5265585510
 C         -1.6324920362       -2.3635300370        0.0408688633
 C         -0.3507960990       -1.8583847288        0.6592344822
 C         -0.1987000246       -1.8397784264        2.0416153826
 C          0.9530997212       -1.3331274706        2.6155377708
 C          1.9758738241       -0.8365384422        1.8266832706
 C          1.8284761972       -0.8358648144        0.4461891176
 C          0.6754375384       -1.3563381404       -0.1272784696
 H          0.5574903957       -1.3320860117       -1.2000314710
 N          2.8552238445       -0.3430584953       -0.3819714591
 S          3.4935950828        1.2000566379       -0.1659122131
 O          3.0448656325        1.7597567353        1.0853403553
 O          3.2131167535        1.9709195649       -1.3586376095
 C          5.2448666569        0.8684033032       -0.0881159657
 C          5.7283420011        0.0914724764        0.9463664654
 C          7.0853988349       -0.1808155109        1.0053667841
 C          7.9348268181        0.3255669490        0.0328990480
 C          7.4356746798        1.1031828464       -1.0002405538
 C          6.0781540394        1.3773200974       -1.0643836760
 H          5.6462255386        1.9756758186       -1.8501287383
 H          8.0965994297        1.4957347486       -1.7562562141
 H          8.9909033694        0.1116883435        0.0805803393
 H          7.4750040274       -0.7875756835        1.8069064936
 H          5.0402638218       -0.2872810219        1.6836809059
 H          2.6398483037       -0.4632726350       -1.3620806703
 H          2.8607762878       -0.4170566995        2.2749185133
 H          1.0573422206       -1.3238968613        3.6900391726
 H         -1.0019949633       -2.2083902843        2.6634068655
 H         -2.2020559656       -2.8763666072        0.8274373917
 C         -1.3857471321       -3.3429538903       -1.0884951533
 C         -0.9050542572       -4.7231830018       -0.7578320260
 C         -2.3037475934       -4.5152856232       -1.2535942078
 H         -2.5519949563       -4.8367117791       -2.2540059982
 H         -3.1160668181       -4.6174140067       -0.5489067557
 H         -0.1897248334       -5.1908550107       -1.4166301202
 H         -0.7682553942       -4.9660427744        0.2850223931
 H         -1.0108431792       -2.8805341337       -1.9921444875
